%nproc=1
%NoSave
%Mem=1900MB
#P OB98/GEN NMR

erre ene a

0 1
  C        3.985      40.320     -18.770
  O        5.368      40.555     -18.613
  H        3.754      40.115     -19.817
  H        3.704      39.449     -18.171
  H        3.412      41.184     -18.424
  P        5.993      41.775     -19.446
  C        7.851      40.116     -20.164
  O        7.541      41.424     -19.703
  C        9.151      39.633     -19.525
  O        8.896      39.361     -18.124
  C        9.742      38.362     -20.158
  O       11.073      38.614     -20.621
  C        9.813      37.365     -19.011
  O       11.007      36.584     -19.019
  C        9.724      38.246     -17.771
  N       10.759      36.312     -13.172
  C       11.361      37.288     -13.887
  N       10.973      37.830     -15.059
  C        9.819      37.282     -15.477
  C        9.079      36.296     -14.846
  C        9.603      35.790     -13.646
  N        9.020      34.757     -12.946
  N        7.953      35.982     -15.585
  C        8.038      36.733     -16.664
  N        9.158      37.520     -16.652
  O        6.053      42.961     -18.371
  O        5.225      42.170     -20.662
  H       10.972      36.028     -19.821
  H        5.680      43.775     -18.760
  H       12.281      37.681     -13.465
  H        7.348      36.714     -17.499
  H       10.705      38.634     -17.469
  H        8.955      36.686     -19.079
  H        9.131      37.974     -20.980
  H        9.880      40.452     -19.567
  H        7.975      40.131     -21.253
  H        9.525      34.379     -12.161
  H        8.220      34.292     -13.350
  H        7.022      39.445     -19.917
  P       11.578      37.736     -21.872
  C       14.047      37.384     -21.125
  O       13.152      38.004     -22.040
  O       10.939      38.500     -23.126
  O       11.163      36.305     -21.815
  H       10.809      37.876     -23.865
  H       15.052      37.659     -21.368
  H       13.942      36.321     -21.189
  H       13.820      37.706     -20.130

 6  7  8  9  10  11  12  13  14  15  25  28  32  33  34  35 0
 6-311+G(2d,p)
 ****
 36  39  40 0
 6-311+G(2d,p)
 ****
 1  2  3  4  5  16  17  18  19  20  21  22  23  24 0
 3-21G
 ****
 26  27  29  30  31  37  38  41  42  43  44  45  46  47  48 0
 3-21G
 ****


