%nproc=1
%NoSave
%Mem=1900MB
#P OB98/GEN NMR

erre ene a

0 1
  C     -896.450     516.841    -920.615
  O     -895.580     517.153    -919.554
  P     -895.460     518.680    -919.017
  C     -895.990     517.850    -916.621
  O     -896.370     518.752    -917.691
  C     -895.360     518.684    -915.473
  O     -896.290     519.677    -914.991
  C     -895.000     517.866    -914.242
  O     -893.980     516.896    -914.389
  C     -894.800     518.947    -913.216
  O     -893.490     519.536    -913.311
  C     -895.890     519.979    -913.598
  N     -897.050     519.954    -912.719
  C     -896.950     520.797    -911.596
  O     -896.000     521.526    -911.371
  N     -898.020     520.758    -910.723
  C     -899.100     519.935    -910.852
  O     -900.000     519.918    -910.003
  C     -899.130     519.047    -912.010
  C     -898.130     519.096    -912.875
  O     -895.760     519.723    -920.032
  O     -893.980     518.732    -918.431
  H     -892.840     518.840    -913.210
  H     -893.790     518.105    -917.705
  H     -897.960     521.346    -909.910
  H     -900.000     518.395    -912.140
  H     -898.100     518.458    -913.754
  H     -895.470     521.000    -913.620
  H     -894.900     518.573    -912.175
  H     -895.910     517.306    -913.966
  H     -894.480     519.231    -915.878
  H     -895.250     517.159    -916.988
  H     -896.870     517.323    -916.272
  P     -894.090     515.406    -913.786
  C     -894.200     514.115    -916.072
  O     -894.870     514.488    -914.868
  O     -894.490     515.258    -912.357
  O     -892.560     514.880    -913.970
  H     -892.370     514.244    -913.271
  H     -894.890     513.549    -916.711
  H     -893.320     513.497    -915.836
  H     -893.890     515.011    -916.623
  H     -896.393     515.794    -920.827
  H     -896.166     517.397    -921.484
  H     -897.452     517.096    -920.341

 3  4  5  6  7  8  9  10  11  12  13  23  28  29  30  31  32 0
 6-311+G(2d,p)
 ****
 33  34 0
 6-311+G(2d,p)
 ****
 1  2  14  15  16  17  18  19  20  21  22  24  25  26  27 0
 3-21G
 ****
 35  36  37  38  39  40  41  42  43  44  45 0
 3-21G
 ****


