%nproc=1
%NoSave
%Mem=1900MB
#P OB98/GEN NMR

erre ene a

0 1
  C     -430.645    -576.828     738.802
  O     -431.609    -577.110     737.785
  P     -432.971    -576.264     737.815
  C     -434.276    -577.892     739.383
  O     -434.158    -577.314     738.086
  C     -435.745    -577.929     739.800
  O     -436.212    -576.609     740.133
  C     -436.699    -578.435     738.715
  O     -436.622    -579.850     738.584
  C     -438.032    -577.926     739.265
  O     -438.500    -578.791     740.309
  C     -437.628    -576.553     739.852
  N     -441.224    -573.340     738.059
  C     -441.278    -574.371     738.952
  N     -440.277    -575.195     739.366
  C     -439.126    -574.875     738.763
  C     -438.907    -573.872     737.817
  C     -440.024    -573.079     737.468
  N     -439.943    -572.038     736.571
  N     -437.590    -573.858     737.408
  C     -437.016    -574.823     738.099
  N     -437.890    -575.455     738.938
  O     -433.175    -575.856     736.284
  O     -432.953    -575.074     738.715
  H     -439.367    -578.436     740.623
  H     -433.592    -574.973     736.212
  H     -442.260    -574.550     739.397
  H     -435.968    -575.102     738.021
  H     -438.153    -576.319     740.792
  H     -438.810    -577.871     738.497
  H     -436.484    -577.954     737.762
  H     -435.829    -578.572     740.701
  H     -433.726    -577.287     740.104
  H     -440.811    -571.632     736.265
  H     -439.094    -571.943     736.026
  H     -433.842    -578.897     739.369
  P     -435.709    -580.417     737.383
  C     -437.627    -580.399     735.674
  O     -436.744    -581.197     736.446
  O     -434.919    -581.612     738.108
  O     -434.840    -579.393     736.714
  H     -435.529    -582.167     738.603
  H     -438.246    -581.037     735.056
  H     -437.077    -579.704     735.044
  H     -438.299    -579.820     736.355
  H     -429.790    -577.457     738.667
  H     -431.076    -577.013     739.764
  H     -430.347    -575.802     738.736

 3  4  5  6  7  8  9  10  11  12  22  25  29  30  31  32 0
 6-311+G(2d,p)
 ****
 33  36  37 0
 6-311+G(2d,p)
 ****
 1  2  13  14  15  16  17  18  19  20  21  23  24  26 0
 3-21G
 ****
 27  28  34  35  38  39  40  41  42  43  44  45  46  47  48 0
 3-21G
 ****


