%nproc=1
%NoSave
%Mem=1900MB
#P OB98/GEN NMR

erre ene a

0 1
  C      -98.394      10.046    -103.808
  O      -98.118       9.700    -102.465
  H      -98.003      11.048    -103.999
  H      -99.474      10.047    -103.980
  H      -97.909       9.341    -104.488
  P      -98.602       8.248    -101.989
  C     -101.140       8.843    -102.001
  O     -100.002       8.471    -101.239
  C     -102.394       8.144    -101.463
  O     -102.201       6.701    -101.558
  C     -102.696       8.454     -99.989
  O     -104.117       8.350     -99.798
  C     -102.001       7.302     -99.282
  O     -102.420       7.205     -97.941
  C     -102.375       6.165    -100.228
  N     -101.194       2.311     -97.085
  C     -102.102       3.304     -96.986
  N     -102.368       4.287     -97.869
  C     -101.595       4.168     -98.962
  C     -100.632       3.203     -99.209
  C     -100.436       2.240     -98.205
  N      -99.505       1.231     -98.298
  N     -100.039       3.410    -100.441
  C     -100.636       4.480    -100.927
  N     -101.575       4.975    -100.066
  O      -97.587       7.890    -100.805
  O      -98.619       7.197    -103.048
  H     -102.098       6.372     -97.535
  H      -96.851       7.351    -101.151
  H     -102.693       3.312     -96.074
  H     -100.422       4.939    -101.884
  H     -103.427       5.875    -100.122
  H     -100.918       7.454     -99.263
  H     -102.359       9.446     -99.676
  H     -103.246       8.391    -102.107
  H     -100.970       8.553    -103.043
  H     -101.277       9.927    -101.947
  H      -99.416       0.589     -97.527
  H      -98.922       1.177     -99.119
  P     -105.058       9.579    -100.232
  C     -104.780      10.820     -97.946
  O     -105.659      10.258     -98.909
  O     -106.341       8.822    -100.827
  O     -104.480      10.513    -101.243
  H     -106.769       9.385    -101.498
  H     -105.350      11.225     -97.136
  H     -104.203      11.598     -98.401
  H     -104.124      10.060     -97.575

 6  7  8  9  10  11  12  13  14  15  25  28  32  33  34  35 0
 6-311+G(2d,p)
 ****
 36  37  40 0
 6-311+G(2d,p)
 ****
 1  2  3  4  5  16  17  18  19  20  21  22  23  24 0
 3-21G
 ****
 26  27  29  30  31  38  39 41  42  43  44  45  46  47  48 0
 3-21G
 ****


