%nproc=1
%NoSave
%Mem=1900MB
#P OB98/GEN NMR

erre ene a

0 1
  C      177.721     -68.314     -53.150
  O      177.116     -67.593     -52.094
  H      177.223     -68.044     -54.086
  H      177.621     -69.391     -52.997
  H      178.779     -68.048     -53.229
  P      177.495     -68.002     -50.587
  C      178.688     -65.844     -49.820
  O      178.844     -67.195     -50.249
  C      178.959     -65.712     -48.319
  O      180.293     -66.163     -48.013
  C      178.894     -64.281     -47.809
  O      177.596     -63.724     -47.811
  C      179.676     -64.362     -46.505
  O      178.884     -64.766     -45.393
  C      180.719     -65.461     -46.828
  N      182.063     -64.910     -46.976
  C      182.914     -65.091     -45.891
  O      182.576     -65.654     -44.849
  N      184.169     -64.561     -46.022
  C      184.623     -63.842     -47.088
  O      185.747     -63.355     -47.128
  C      183.669     -63.661     -48.195
  C      182.449     -64.196     -48.090
  O      177.586     -69.474     -50.316
  O      176.394     -67.254     -49.703
  H      179.491     -64.895     -44.639
  H      176.353     -67.631     -48.792
  H      184.802     -64.691     -45.250
  H      183.996     -63.093     -49.054
  H      181.726     -64.074     -48.893
  H      180.750     -66.204     -46.022
  H      180.124     -63.401     -46.246
  H      179.488     -63.654     -48.482
  H      178.250     -66.356     -47.784
  H      177.655     -65.547     -50.027
  H      179.363     -65.197     -50.388
  P      177.093     -62.674     -48.903
  C      174.828     -63.931     -49.088
  O      175.938     -63.373     -49.777
  O      178.145     -61.881     -49.608
  O      176.249     -61.646     -47.989
  H      176.355     -60.755     -48.374
  H      174.147     -64.357     -49.795
  H      174.331     -63.164     -48.532
  H      175.170     -64.692     -48.418

 6  7  8  9  10  11  12  13  14  15  16  26  31  32  33  34  35 0
 6-311+G(2d,p)
 ****
 36  37 0
 6-311+G(2d,p)
 ****
 1  2  3  4  5  17  18  19  20  21  22  23  24  25 0
 3-21G
 ****
 27  28  29  30  38  39  40  41  42  43  44  45 0
 3-21G
 ****


