%nproc=1
%NoSave
%Mem=1900MB
#P OB98/GEN NMR

erre ene a

0 1
  C     -177.271      24.720    -575.125
  O     -177.606      24.271    -573.826
  P     -179.145      24.200    -573.362
  C     -179.711      26.193    -571.834
  O     -179.673      25.704    -573.175
  C     -178.340      26.732    -571.426
  O     -177.923      27.802    -572.308
  C     -178.303      27.337    -570.030
  O     -178.348      26.337    -569.018
  C     -176.999      28.125    -570.084
  O     -175.864      27.266    -569.876
  C     -177.017      28.646    -571.546
  N     -177.398      30.049    -571.631
  C     -176.484      30.957    -571.091
  O     -175.472      30.565    -570.506
  N     -176.749      32.302    -571.218
  C     -177.876      32.689    -571.728
  N     -178.059      34.028    -571.883
  C     -178.932      31.750    -572.161
  C     -178.621      30.457    -572.108
  O     -179.415      23.288    -572.216
  O     -179.922      23.712    -574.675
  H     -180.496      22.962    -574.442
  H     -175.996      26.839    -569.005
  H     -179.881      32.121    -572.518
  H     -179.322      29.698    -572.433
  H     -176.029      28.508    -572.009
  H     -176.956      28.915    -569.332
  H     -179.145      28.025    -569.904
  H     -177.609      25.906    -571.509
  H     -177.308      34.644    -571.594
  H     -179.999      25.369    -571.172
  H     -178.727      34.414    -572.549
  H     -180.469      26.976    -571.757
  P     -178.903      26.797    -567.584
  C     -177.020      27.321    -565.870
  O     -177.814      27.785    -566.950
  O     -178.755      25.460    -566.695
  O     -180.303      27.294    -567.582
  H     -179.511      25.404    -566.067
  H     -176.131      27.954    -565.791
  H     -176.709      26.287    -566.027
  H     -177.588      27.392    -564.942
  H     -176.208      24.697    -575.247
  H     -177.624      25.721    -575.258
  H     -177.727      24.081    -575.852

 3  4  5  6  7  8  9  10  11  12  13  24  27  28  29  30  32 0
 6-311+G(2d,p)
 ****
 34  35 0
 6-311+G(2d,p)
 ****
 1  2  14  15  16  17  18  19  20  21  22  23  25  26 0
 3-21G
 ****
 31  33  36  37  38  39  40  41  42  43  44  45  46 0
 3-21G
 ****


