%nproc=1
%NoSave
%Mem=1900MB
#P OB98/GEN NMR

erre ene a

0 1
  C       47.560     334.123    -274.195
  O       48.937     333.923    -274.420
  P       50.015     334.654    -273.484
  C       51.218     336.759    -274.335
  O       49.994     336.215    -273.844
  C       51.511     336.231    -275.737
  O       50.385     336.464    -276.610
  C       52.700     336.894    -276.418
  O       53.920     336.399    -275.896
  C       52.444     336.545    -277.881
  O       52.895     335.211    -278.167
  C       50.909     336.615    -277.950
  N       50.387     339.239    -282.300
  C       51.049     338.097    -282.012
  N       51.177     337.482    -280.812
  C       50.543     338.173    -279.856
  C       49.861     339.378    -279.994
  C       49.776     339.908    -281.291
  N       49.051     341.034    -281.609
  N       49.381     339.804    -278.763
  C       49.772     338.882    -277.907
  N       50.425     337.855    -278.531
  O       51.369     334.025    -273.453
  O       49.341     334.614    -272.029
  H       52.876     335.101    -279.134
  H       49.919     334.115    -271.416
  H       51.535     337.604    -282.849
  H       49.596     338.908    -276.838
  H       50.490     335.796    -278.545
  H       52.951     337.220    -278.570
  H       52.645     337.985    -276.289
  H       51.660     335.146    -275.671
  H       52.022     336.466    -273.651
  H       48.932     341.238    -282.592
  H       48.349     341.366    -280.948
  H       51.150     337.853    -274.349
  P       55.294     337.164    -276.209
  C       56.586     335.781    -277.931
  O       55.675     336.844    -277.732
  O       56.385     336.961    -275.209
  O       54.853     338.704    -276.266
  H       55.584     339.266    -275.948
  H       57.609     336.127    -277.712
  H       56.536     335.467    -278.979
  H       56.352     334.932    -277.293
  H       46.996     333.561    -274.910
  H       47.329     335.163    -274.297
  H       47.309     333.797    -273.207

 3  4  5  6  7  8  9  10  11  12  22  25  29  30  31  32 0
 6-311+G(2d,p)
 ****
 33  36  37 0
 6-311+G(2d,p)
 ****
 1  2  13  14  15  16  17  18  19  20  21  23  24  26 0
 3-21G
 ****
 27  28  34  35  38  39  40  41  42  43  44  45  46  47  48 0
 3-21G
 ****


