%nproc=1
%NoSave
%Mem=1900MB
#P OB98/GEN NMR

erre ene a

0 1
  C      -18.491    -169.033    -101.556
  O      -18.895    -169.658    -100.332
  P      -20.467    -169.727    -100.018
  C      -20.407    -167.853     -98.222
  O      -20.944    -168.298     -99.460
  C      -21.214    -166.675     -97.652
  O      -21.038    -165.484     -98.470
  C      -22.720    -166.942     -97.581
  O      -23.257    -166.203     -96.477
  C      -23.227    -166.327     -98.870
  O      -24.633    -166.077     -98.820
  C      -22.340    -165.085     -98.949
  N      -24.346    -161.782    -102.193
  C      -24.714    -162.095    -100.897
  N      -25.750    -161.398    -100.379
  N      -24.120    -163.008    -100.173
  C      -23.079    -163.597    -100.812
  C      -22.622    -163.381    -102.092
  C      -23.306    -162.384    -102.891
  O      -23.033    -162.076    -104.047
  N      -21.556    -164.194    -102.390
  C      -21.375    -164.903    -101.292
  N      -22.249    -164.554    -100.296
  O      -20.533    -170.672     -98.727
  O      -21.284    -170.282    -101.137
  H      -24.932    -165.911     -99.742
  H      -20.903    -171.540     -98.973
  H      -24.848    -161.078    -102.707
  H      -20.633    -165.678    -101.165
  H      -22.705    -164.271     -98.311
  H      -23.030    -167.003     -99.712
  H      -26.218    -160.647    -100.863
  H      -22.996    -167.996     -97.478
  H      -26.012    -161.579     -99.417
  H      -20.832    -166.441     -96.652
  H      -19.364    -167.548     -98.352
  H      -20.382    -168.693     -97.521
  P      -23.452    -166.996     -95.096
  C      -26.004    -167.071     -94.609
  O      -24.882    -167.711     -95.191
  O      -23.685    -165.830     -94.022
  O      -22.312    -167.884     -94.721
  H      -23.428    -166.134     -93.133
  H      -26.606    -166.619     -95.402
  H      -25.708    -166.298     -93.892
  H      -26.606    -167.821     -94.088
  H      -17.424    -169.058    -101.634
  H      -18.826    -168.017    -101.565
  H      -18.921    -169.558    -102.383

 3  4  5  6  7  8  9  10  11  12  23  26  30  31 0
 6-311+G(2d,p)
 ****
 33  35  36  37  38 0
 6-311+G(2d,p)
 ****
 1  2  13  14  15  16  17  18  19  20  21  22  24  25 0
 3-21G
 ****
 27  28  29  32  34  39  40  41  42  43  44  45  46  47  48  49 0
 3-21G
 ****


