%nproc=1
%NoSave
%Mem=1900MB
#P OB98/GEN NMR

erre ene a

0 1
  C      -48.740     145.111     -41.836
  O      -48.753     146.336     -42.574
  P      -50.121     147.164     -42.684
  C      -50.800     148.073     -40.368
  O      -50.106     148.334     -41.580
  C      -50.440     149.115     -39.298
  O      -49.000     149.351     -39.278
  C      -51.115     150.471     -39.549
  O      -51.415     151.121     -38.300
  C      -50.023     151.271     -40.234
  O      -50.254     152.676     -40.129
  C      -48.790     150.763     -39.491
  N      -44.203     153.050     -39.378
  C      -45.179     152.944     -38.448
  N      -46.363     152.301     -38.540
  C      -46.491     151.707     -39.741
  C      -45.576     151.720     -40.786
  C      -44.385     152.435     -40.574
  N      -43.406     152.565     -41.532
  N      -46.056     151.005     -41.866
  C      -47.261     150.613     -41.497
  N      -47.553     150.985     -40.212
  O      -51.372     146.349     -42.721
  O      -49.932     147.984     -44.052
  H      -50.289     152.899     -39.182
  H      -50.771     147.970     -44.550
  H      -44.985     153.450     -37.506
  H      -47.959     150.074     -42.123
  H      -48.686     151.233     -38.505
  H      -49.982     151.007     -41.298
  H      -52.030     150.422     -40.147
  H      -50.713     148.720     -38.311
  H      -50.553     147.071     -40.009
  H      -42.639     153.194     -41.334
  H      -43.593     152.241     -42.471
  H      -51.879     148.062     -40.566
  P      -52.924     151.668     -38.133
  C      -54.108     149.440     -37.445
  O      -53.621     150.705     -37.059
  O      -53.640     151.839     -39.434
  O      -52.689     153.043     -37.347
  H      -52.127     152.968     -36.556
  H      -54.425     148.897     -36.550
  H      -53.331     148.858     -37.948
  H      -54.971     149.557     -38.110
  H      -47.757     144.689     -41.862
  H      -49.434     144.424     -42.273
  H      -49.019     145.303     -40.821

 3  4  5  6  7  8  9  10  11  12  22  25  29  30  31  32 0
 6-311+G(2d,p)
 ****
 33  36  37 0
 6-311+G(2d,p)
 ****
 1  2  13  14  15  16  17  18  19  20  21  23  24  26 0
 3-21G
 ****
 27  28  34  35  38  39  40  41  42  43  44  45  46  47  48 0
 3-21G
 ****


