%nproc=1
%NoSave
%Mem=1900MB
#P OB98/GEN NMR

erre ene a

0 1
  C     -362.108     532.476      38.435
  O     -363.389     531.883      38.446
  H     -361.885     532.848      39.443
  H     -362.082     533.316      37.739
  H     -361.357     531.733      38.156
  P     -363.960     531.364      37.036
  C     -364.385     528.826      37.408
  O     -363.517     529.826      36.893
  C     -363.579     527.866      38.285
  O     -362.982     528.600      39.381
  C     -364.418     526.782      38.940
  O     -364.718     525.707      38.062
  C     -363.501     526.350      40.071
  O     -362.530     525.382      39.637
  C     -362.820     527.666      40.476
  N     -363.362     528.194      41.718
  C     -363.510     527.270      42.757
  O     -363.218     526.082      42.646
  N     -364.064     527.760      43.913
  C     -364.504     529.027      44.116
  O     -365.038     529.383      45.163
  C     -364.336     529.954      42.989
  C     -363.782     529.511      41.855
  O     -363.047     532.133      35.973
  O     -365.420     531.618      36.819
  H     -363.567     532.844      35.545
  H     -363.044     524.651      39.225
  H     -364.180     527.100      44.676
  H     -364.676     530.977      43.115
  H     -363.653     530.164      41.011
  H     -361.743     527.521      40.607
  H     -364.056     525.893      40.884
  H     -365.327     527.210      39.370
  H     -362.774     527.426      37.682
  H     -364.824     528.260      36.583
  H     -365.185     529.300      37.977
  P     -366.243     525.559      37.563
  C     -365.505     524.838      35.142
  O     -366.203     525.753      35.971
  O     -366.866     526.915      38.124
  O     -366.895     524.306      38.044
  H     -366.194     527.625      38.204
  H     -365.598     525.140      34.120
  H     -365.919     523.859      35.263
  H     -364.471     524.824      35.417

 6  7  8  9  10  11  12  13  14  15  16  27  31  32  33  34  35 0
 6-311+G(2d,p)
 ****
 36  37 0
 6-311+G(2d,p)
 ****
 1  2  3  4  5  17  18  19  20  21  22  23  24  25 0
 3-21G
 ****
 26  28  29  30  38  39  40  41  42  43  44  45 0
 3-21G
 ****


