%nproc=1
%NoSave
%Mem=1900MB
#P OB98/GEN NMR

erre ene a

0 1
  C      692.865     126.057     -33.630
  O      692.266     127.238     -33.125
  P      690.939     127.844     -33.794
  C      692.078     130.085     -34.339
  O      691.026     129.440     -33.629
  C      692.475     131.388     -33.625
  O      691.292     132.243     -33.515
  C      693.020     131.156     -32.205
  O      694.291     131.760     -31.945
  C      691.878     131.633     -31.318
  O      692.273     131.963     -29.996
  C      691.284     132.758     -32.172
  N      689.940     133.142     -31.725
  C      689.805     134.373     -31.093
  O      690.729     135.157     -30.897
  N      688.553     134.670     -30.635
  C      687.472     133.838     -30.624
  O      686.418     134.134     -30.104
  C      687.689     132.523     -31.274
  C      688.886     132.249     -31.817
  O      689.652     127.253     -33.323
  O      691.199     127.655     -35.367
  H      691.471     132.241     -29.512
  H      691.999     128.105     -35.701
  H      688.440     135.559     -30.167
  H      686.864     131.834     -31.277
  H      689.065     131.301     -32.294
  H      691.916     133.646     -32.157
  H      691.154     130.810     -31.241
  H      693.199     130.081     -32.020
  H      693.211     131.902     -34.253
  H      691.729     130.325     -35.350
  H      692.934     129.411     -34.433
  P      695.402     131.186     -30.949
  C      695.031     133.197     -29.354
  O      695.948     132.392     -30.058
  O      696.462     130.347     -31.599
  O      694.558     130.306     -29.903
  H      695.107     129.580     -29.574
  H      695.462     134.203     -29.232
  H      694.869     132.774     -28.361
  H      694.080     133.276     -29.878
  H      693.733     125.821     -33.050
  H      693.149     126.209     -34.650
  H      692.166     125.249     -33.571

 3  4  5  6  7  8  9  10  11  12  13  23  28  29  30  31  32 0
 6-311+G(2d,p)
 ****
 33  34 0
 6-311+G(2d,p)
 ****
 1  2  14  15  16  17  18  19  20  21  22  24  25  26  27 0
 3-21G
 ****
 35  36  37  38  39  40  41  42  43  44  45 0
 3-21G
 ****


