%nproc=1
%NoSave
%Mem=1900MB
#P OB98/GEN NMR

erre ene a

0 1
  C     -342.505      83.655    -150.674
  O     -343.563      83.617    -149.742
  H     -342.723      84.424    -151.420
  H     -342.420      82.689    -151.180
  H     -341.556      83.901    -150.188
  P     -343.357      82.816    -148.372
  C     -343.143      80.584    -149.651
  O     -342.546      81.478    -148.724
  C     -342.328      79.291    -149.764
  O     -341.071      79.581    -150.427
  C     -341.981      78.723    -148.381
  O     -341.818      77.308    -148.409
  C     -340.638      79.370    -148.082
  O     -339.867      78.644    -147.125
  C     -340.009      79.420    -149.474
  N     -336.212      82.069    -147.339
  C     -337.081      81.164    -146.759
  N     -336.910      80.933    -145.434
  N     -338.040      80.561    -147.410
  C     -338.136      80.940    -148.707
  C     -337.351      81.842    -149.389
  C     -336.270      82.479    -148.665
  O     -335.488      83.304    -149.125
  N     -337.760      81.976    -150.692
  C     -338.789      81.162    -150.799
  N     -339.043      80.490    -149.627
  O     -344.821      82.255    -148.041
  O     -342.804      83.618    -147.231
  H     -339.080      79.179    -146.917
  H     -344.900      82.059    -147.090
  H     -335.471      82.481    -146.799
  H     -339.375      81.009    -151.698
  H     -339.496      78.477    -149.699
  H     -340.822      80.362    -147.660
  H     -336.319      81.519    -144.865
  H     -342.717      78.982    -147.623
  H     -337.710      80.532    -144.938
  H     -342.858      78.566    -150.391
  H     -343.181      81.101    -150.615
  H     -344.173      80.367    -149.360
  P     -342.728      76.413    -147.440
  C     -340.705      75.946    -145.796
  O     -342.051      76.315    -145.998
  O     -342.577      74.937    -148.035
  O     -344.161      76.845    -147.370
  H     -343.433      74.616    -148.373
  H     -340.487      75.952    -144.749
  H     -340.065      76.642    -146.298
  H     -340.542      74.964    -146.188

 6  7  8  9  10  11  12  13  14  15  26  29  33  34 0
 6-311+G(2d,p)
 ****
 36  38  39  40  41 0
 6-311+G(2d,p)
 ****
 1  2  3  4  5  16  17  18  19  20  21  22  23  24  25 0
 3-21G
 ****
 27  28  30  31  32  35  37  42  43  44  45  46  47 0
 3-21G
 ****
 48  49 0
 3-21G
 ****


