%nproc=1
%NoSave
%Mem=1900MB
#P OB98/GEN NMR

erre ene a

0 1
  C      314.364    -169.653    -227.953
  O      314.228    -169.527    -226.544
  P      314.293    -168.093    -225.842
  C      311.724    -167.692    -225.455
  O      313.008    -167.929    -224.911
  C      310.670    -167.873    -224.353
  O      310.606    -169.262    -223.962
  C      311.010    -167.049    -223.111
  O      310.338    -165.798    -223.150
  C      310.552    -167.955    -221.986
  O      309.128    -167.841    -221.782
  C      310.901    -169.355    -222.539
  N      312.290    -169.836    -222.400
  C      312.936    -169.729    -221.171
  O      312.392    -169.298    -220.148
  N      314.246    -170.148    -221.140
  C      314.938    -170.674    -222.196
  O      316.153    -170.812    -222.230
  C      314.133    -170.999    -223.379
  C      312.875    -170.559    -223.434
  O      314.007    -167.088    -227.046
  O      315.577    -167.773    -225.139
  H      308.909    -168.368    -221.002
  H      314.848    -166.709    -227.398
  H      314.759    -169.944    -220.284
  H      314.606    -171.550    -224.187
  H      312.271    -170.754    -224.325
  H      310.250    -170.133    -222.117
  H      311.021    -167.666    -221.037
  H      312.096    -166.908    -223.027
  H      309.689    -167.586    -224.754
  H      311.535    -168.375    -226.289
  H      311.673    -166.673    -225.862
  P      310.922    -164.568    -222.311
  C      312.233    -163.765    -224.366
  O      311.241    -163.436    -223.401
  O      312.039    -164.893    -221.358
  O      309.635    -164.008    -221.533
  H      309.611    -164.362    -220.618
  H      312.227    -162.996    -225.147
  H      312.011    -164.735    -224.817
  H      313.215    -163.791    -223.888
  H      314.293    -170.685    -228.227
  H      315.316    -169.268    -228.255
  H      313.586    -169.101    -228.437

 3  4  5  6  7  8  9  10  11  12  13  23  28  29  30  31  32 0
 6-311+G(2d,p)
 ****
 33  34 0
 6-311+G(2d,p)
 ****
 1  2  14  15  16  17  18  19  20  21  22  24  25  26  27 0
 3-21G
 ****
 35  36  37  38  39  40  41  42  43  44  45 0
 3-21G
 ****


