%nproc=1
%NoSave
%Mem=1900MB
#P OB98/GEN NMR

erre ene a

0 1
  C      -64.073    -893.490     420.599
  O      -62.923    -894.250     420.864
  H      -64.979    -894.070     420.792
  H      -64.076    -892.610     421.257
  H      -64.069    -893.150     419.558
  P      -62.743    -895.610     420.020
  C      -60.330    -895.220     419.154
  O      -61.176    -895.970     420.026
  C      -58.925    -895.820     419.163
  O      -58.290    -895.520     420.437
  C      -58.865    -897.350     418.939
  O      -58.065    -897.660     417.806
  C      -58.163    -897.890     420.182
  O      -57.238    -898.930     419.900
  C      -57.470    -896.650     420.754
  N      -55.080    -899.320     424.398
  C      -54.803    -899.160     423.077
  N      -55.414    -898.350     422.184
  C      -56.395    -897.640     422.782
  C      -56.774    -897.680     424.112
  C      -56.087    -898.590     424.940
  N      -56.397    -898.780     426.264
  N      -57.822    -896.790     424.342
  C      -58.106    -896.280     423.168
  N      -57.282    -896.770     422.186
  O      -63.032    -895.140     418.510
  O      -63.650    -896.730     420.429
  H      -57.703    -899.580     419.333
  H      -63.643    -895.760     418.088
  H      -54.001    -899.760     422.698
  H      -58.905    -895.590     422.954
  H      -56.484    -896.480     420.288
  H      -58.926    -898.270     420.881
  H      -59.868    -897.790     418.829
  H      -58.328    -895.310     418.384
  H      -60.278    -894.180     419.506
  H      -55.933    -899.530     426.736
  H      -57.208    -898.310     426.648
  H      -60.755    -895.240     418.148
  P      -58.734    -898.610     416.675
  C      -58.026    -897.420     414.487
  O      -57.831    -898.520     415.363
  O      -60.064    -897.810     416.281
  O      -59.040    -900.000     417.168
  H      -60.749    -898.430     415.957
  H      -57.352    -897.499     413.660
  H      -57.839    -896.507     415.013
  H      -59.034    -897.424     414.128

 6  7  8  9  10  11  12  13  14  15  25  28  32  33  34  35 0
 6-311+G(2d,p)
 ****
 36  39  40 0
 6-311+G(2d,p)
 ****
 1  2  3  4  5  16  17  18  19  20  21  22  23  24 0
 3-21G
 ****
 26  27  29  30  31  37  38  41  42  43  44  45  46  47  48 0
 3-21G
 ****


