%nproc=1
%NoSave
%Mem=1900MB
#P OB98/GEN NMR

erre ene a

0 1
  C       53.695     -59.146      76.213
  O       53.459     -59.559      77.552
  P       52.597     -60.890      77.796
  C       53.062     -63.411      77.409
  O       53.336     -62.077      77.005
  C       53.105     -64.369      76.219
  O       51.811     -64.360      75.557
  C       54.157     -64.020      75.160
  O       54.621     -65.255      74.599
  C       53.354     -63.271      74.113
  O       53.999     -63.263      72.843
  C       52.042     -64.049      74.166
  N       49.368     -62.930      69.955
  C       50.415     -63.759      70.161
  N       51.072     -64.004      71.312
  C       50.549     -63.286      72.321
  C       49.508     -62.376      72.255
  C       48.898     -62.207      71.000
  N       47.827     -61.373      70.789
  N       49.274     -61.816      73.494
  C       50.158     -62.376      74.293
  N       50.933     -63.288      73.634
  O       51.283     -60.620      76.924
  O       52.257     -61.176      79.218
  H       54.056     -64.183      72.523
  H       50.512     -60.497      77.513
  H       50.765     -64.300      69.287
  H       50.278     -62.157      75.345
  H       52.101     -64.996      73.613
  H       53.214     -62.231      74.429
  H       55.000     -63.436      75.543
  H       53.265     -65.385      76.599
  H       52.060     -63.445      77.849
  H       47.360     -61.409      69.898
  H       47.350     -60.976      71.594
  H       53.786     -63.720      78.169
  P       56.181     -65.352      74.246
  C       58.303     -65.362      75.737
  O       56.979     -64.898      75.557
  O       56.406     -64.140      73.224
  O       56.592     -66.658      73.650
  H       57.149     -64.342      72.626
  H       58.880     -64.592      76.255
  H       58.789     -65.590      74.785
  H       58.285     -66.266      76.354
  H       54.280     -58.250      76.214
  H       52.760     -58.961      75.727
  H       54.223     -59.916      75.690

 3  4  5  6  7  8  9  10  11  12  22  25  29  30  31  32 0
 6-311+G(2d,p)
 ****
 33  36  37 0
 6-311+G(2d,p)
 ****
 1  2  13  14  15  16  17  18  19  20  21  23  24  26 0
 3-21G
 ****
 27  28  34  35  38  39  40  41  42  43  44  45  46  47  48 0
 3-21G
 ****


