%nproc=1
%NoSave
%Mem=1900MB
#P OB98/GEN NMR

erre ene a

0 1
  C      -34.918     -76.350    -116.016
  O      -34.727     -76.364    -114.610
  P      -34.922     -74.984    -113.816
  C      -32.524     -75.369    -112.925
  O      -33.860     -74.997    -112.611
  C      -31.810     -75.916    -111.696
  O      -30.482     -76.364    -112.084
  C      -31.638     -74.897    -110.558
  O      -31.935     -75.531    -109.307
  C      -30.150     -74.592    -110.578
  O      -29.679     -74.152    -109.309
  C      -29.596     -75.941    -111.030
  N      -24.762     -76.022    -109.572
  C      -25.904     -76.329    -108.859
  N      -25.733     -76.647    -107.557
  N      -27.105     -76.322    -109.372
  C      -27.122     -76.015    -110.692
  C      -26.060     -75.702    -111.508
  C      -24.743     -75.656    -110.911
  O      -23.704     -75.304    -111.466
  N      -26.472     -75.466    -112.795
  C      -27.779     -75.632    -112.758
  N      -28.228     -75.918    -111.493
  O      -36.330     -75.190    -113.084
  O      -34.927     -73.758    -114.662
  H      -29.749     -74.910    -108.699
  H      -36.938     -74.467    -113.330
  H      -23.863     -76.026    -109.122
  H      -28.441     -75.523    -113.608
  H      -29.660     -76.674    -110.215
  H      -29.954     -73.806    -111.315
  H      -24.834     -76.707    -107.108
  H      -32.247     -73.994    -110.669
  H      -26.556     -76.897    -107.023
  H      -32.353     -76.801    -111.342
  H      -31.984     -74.490    -113.293
  H      -32.545     -76.125    -113.716
  P      -32.882     -74.704    -108.307
  C      -31.031     -73.088    -107.442
  O      -31.918     -74.151    -107.154
  O      -33.735     -75.844    -107.578
  O      -33.741     -73.690    -108.985
  H      -34.579     -75.481    -107.251
  H      -31.226     -72.642    -108.422
  H      -30.006     -73.465    -107.424
  H      -31.141     -72.317    -106.676
  H      -34.756     -77.332    -116.408
  H      -34.225     -75.669    -116.463
  H      -35.917     -76.038    -116.237

 3  4  5  6  7  8  9  10  11  12  23  26  30  31  33  0
 6-311+G(2d,p)
 ****
 35  36  37  38 0
 6-311+G(2d,p)
 ****
 1  2  13  14  15  16  17  18  19  20  21  22  24  25  27  28  29 0
 3-21G
 ****
 32  34  39  40  41  42  43  44  45  46  47  48  49 0
 3-21G
 ****


