%nproc=1
%NoSave
%Mem=1900MB
#P OB98/GEN NMR

erre ene a

0 1
  C     -353.737    -483.033      88.563
  O     -354.844    -483.155      89.464
  P     -355.814    -484.434      89.503
  C     -357.220    -484.571      91.661
  O     -357.141    -484.072      90.332
  C     -356.402    -483.719      92.638
  O     -356.758    -482.309      92.494
  C     -356.600    -484.090      94.119
  O     -355.317    -483.965      94.748
  C     -357.559    -483.010      94.593
  O     -357.595    -482.852      95.998
  C     -356.996    -481.807      93.828
  N     -357.854    -480.630      93.789
  C     -357.614    -479.621      94.732
  O     -356.753    -479.742      95.600
  N     -358.386    -478.483      94.682
  C     -359.313    -478.361      93.785
  N     -360.032    -477.206      93.787
  C     -359.612    -479.404      92.790
  C     -358.850    -480.496      92.848
  O     -355.139    -485.681      89.980
  O     -356.339    -484.620      88.001
  H     -356.429    -485.573      87.809
  H     -358.138    -482.068      96.199
  H     -360.387    -479.260      92.055
  H     -358.988    -481.300      92.130
  H     -356.019    -481.537      94.246
  H     -358.569    -483.267      94.262
  H     -356.967    -485.111      94.272
  H     -355.346    -483.804      92.362
  H     -359.792    -476.508      94.482
  H     -356.828    -485.592      91.672
  H     -360.770    -477.003      93.130
  H     -358.270    -484.603      91.968
  P     -354.612    -485.260      95.375
  C     -352.168    -484.526      94.863
  O     -353.138    -484.834      95.840
  O     -354.303    -486.134      94.065
  O     -355.429    -486.054      96.344
  H     -354.251    -487.076      94.315
  H     -351.636    -483.620      95.167
  H     -352.607    -484.355      93.878
  H     -351.452    -485.349      94.797
  H     -353.245    -482.097      88.727
  H     -354.091    -483.078      87.554
  H     -353.048    -483.833      88.734

 3  4  5  6  7  8  9  10  11  12  13  24  27  28  29  30  32 0
 6-311+G(2d,p)
 ****
 34  35 0
 6-311+G(2d,p)
 ****
 1  2  14  15  16  17  18  19  20  21  22  23  25  26 0
 3-21G
 ****
 31  33  36  37  38  39  40  41  42  43  44  45  46 0
 3-21G
 ****


