%nproc=1
%NoSave
%Mem=1900MB
#P OB98/GEN NMR

erre ene a

0 1
  C      -27.362      63.834      74.304
  O      -27.082      62.482      74.672
  P      -25.744      62.227      75.524
  C      -26.542      60.199      76.929
  O      -25.671      60.669      75.911
  C      -26.264      58.734      77.286
  O      -26.831      57.840      76.292
  C      -24.773      58.403      77.395
  O      -24.628      57.406      78.412
  C      -24.463      57.773      76.050
  O      -23.281      56.978      76.110
  C      -25.769      56.999      75.792
  N      -25.965      56.657      74.386
  C      -26.255      55.324      74.088
  O      -26.267      54.476      74.985
  N      -26.483      54.967      72.783
  C      -26.376      55.859      71.844
  N      -26.609      55.445      70.569
  C      -26.011      57.266      72.103
  C      -25.827      57.590      73.382
  O      -26.047      62.952      76.919
  O      -24.511      62.778      74.879
  H      -23.253      56.543      76.990
  H      -25.304      63.535      77.160
  H      -25.916      57.969      71.291
  H      -25.563      58.599      73.673
  H      -25.782      56.067      76.367
  H      -24.320      58.551      75.289
  H      -24.149      59.270      77.633
  H      -26.758      58.516      78.241
  H      -26.865      54.471      70.433
  H      -27.580      60.297      76.605
  H      -26.554      56.050      69.766
  H      -26.438      60.844      77.810
  P      -24.415      57.892      79.924
  C      -26.213      56.184      80.600
  O      -24.894      56.651      80.824
  O      -25.643      58.912      80.110
  O      -23.118      58.532      80.294
  H      -25.587      59.337      80.988
  H      -26.362      55.270      81.179
  H      -26.360      55.955      79.537
  H      -26.936      56.932      80.928
  H      -28.273      63.870      73.744
  H      -26.560      64.214      73.706
  H      -27.462      64.430      75.187

 3  4  5  6  7  8  9  10  11  12  13  21  23  27  28  29  30  32 0
 6-311+G(2d,p)
 ****
 34  35 0
 6-311+G(2d,p)
 ****
 1  2  14  15  16  17  18  19  20  22  24  25  26 0
 3-21G
 ****
 31  33  36  37  38  39  40  41  42  43  44  45  46 0
 3-21G
 ****


