%nproc=1
%NoSave
%Mem=1900MB
#P OB98/GEN NMR

erre ene a

0 1
  C     -102.828    -348.973     250.128
  O     -103.227    -350.068     249.335
  H     -103.666    -348.676     250.762
  H     -102.560    -348.132     249.482
  H     -101.977    -349.229     250.765
  P     -102.101    -350.976     248.651
  C     -100.920    -350.941     246.357
  O     -101.525    -350.171     247.386
  C     -100.851    -350.178     245.035
  O     -102.183    -349.942     244.525
  C     -100.209    -348.799     245.194
  O      -98.793    -348.780     245.153
  C     -100.801    -348.041     244.008
  O     -100.027    -348.270     242.817
  C     -102.192    -348.661     243.870
  N     -104.722    -344.226     243.673
  C     -103.634    -344.641     242.927
  N     -103.123    -343.736     242.064
  N     -103.093    -345.826     243.041
  C     -103.651    -346.587     244.011
  C     -104.724    -346.280     244.821
  C     -105.349    -344.984     244.650
  O     -106.311    -344.566     245.290
  N     -105.009    -347.305     245.688
  C     -104.069    -348.199     245.454
  N     -103.237    -347.820     244.426
  O     -102.938    -352.154     247.956
  O     -101.068    -351.527     249.584
  H      -99.970    -349.231     242.669
  H     -102.384    -352.951     247.876
  H     -105.114    -343.313     243.525
  H     -103.960    -349.143     245.978
  H     -102.450    -348.841     242.818
  H     -100.804    -346.962     244.179
  H     -103.429    -342.776     242.029
  H     -100.557    -348.320     246.114
  H     -102.181    -343.902     241.704
  H     -100.323    -350.786     244.291
  H     -101.528    -351.840     246.237
  H      -99.921    -351.266     246.664
  P      -97.975    -347.831     246.149
  C      -97.302    -345.317     246.156
  O      -97.862    -346.398     245.443
  O      -96.491    -348.420     246.059
  O      -98.480    -347.809     247.550
  H      -96.326    -349.035     246.799
  H      -97.304    -344.443     245.539
  H      -96.296    -345.555     246.433
  H      -97.881    -345.133     247.037

 6  7  8  9  10  11  12  13  14  15  26  29  33  34 0
 6-311+G(2d,p)
 ****
 36  38  39  40  41 0
 6-311+G(2d,p)
 ****
 1  2  3  4  5  16  17  18  19  20  21  22  23  24  25 0
 3-21G
 ****
 27  28  30  31  32  35  37  42  43  44  45  46  47 0
 3-21G
 ****
 48  49 0
 3-21G
 ****


