%nproc=1
%NoSave
%Mem=1900MB
#P OB98/GEN NMR

erre ene a

0 1
  C      198.738      -9.733     512.766
  O      197.898     -10.193     513.807
  H      199.595      -9.221     513.214
  H      198.204      -9.030     512.125
  H      199.107     -10.576     512.173
  P      196.523     -10.930     513.423
  C      195.100      -9.283     514.812
  O      195.490     -10.635     514.620
  C      194.809      -9.020     516.301
  O      196.086      -8.971     516.991
  C      194.077      -7.689     516.532
  O      192.885      -7.830     517.312
  C      195.170      -6.773     517.080
  O      194.705      -5.717     517.895
  C      196.124      -7.757     517.773
  N      197.500      -7.263     517.899
  C      197.793      -6.454     518.991
  O      196.994      -6.143     519.873
  N      199.087      -6.001     519.055
  C      200.079      -6.263     518.161
  O      201.227      -5.837     518.269
  C      199.696      -7.104     517.013
  C      198.450      -7.563     516.933
  O      196.646     -12.366     513.039
  O      195.941     -10.045     512.226
  H      194.146      -6.107     518.591
  H      196.101     -10.498     511.371
  H      199.315      -5.426     519.849
  H      200.463      -7.331     516.275
  H      198.132      -8.181     516.099
  H      195.765      -7.985     518.783
  H      195.697      -6.317     516.231
  H      193.708      -7.271     515.586
  H      194.248      -9.869     516.705
  H      194.200      -9.100     514.219
  H      195.900      -8.615     514.467
  P      191.525      -7.048     517.037
  C      191.275      -6.763     519.636
  O      190.663      -7.048     518.389
  O      190.806      -7.409     515.779
  O      191.999      -5.509     516.905
  H      191.402      -5.084     516.254
  H      190.541      -6.811     520.413
  H      191.701      -5.782     519.608
  H      192.045      -7.481     519.828

 6  7  8  9  10  11  12  13  14  15  16  26  31  32  33  34  35 0
 6-311+G(2d,p)
 ****
 36  37 0
 6-311+G(2d,p)
 ****
 1  2  3  4  5  17  18  19  20  21  22  23  24  25 0
 3-21G
 ****
 27  28  29  30  38  39  40  41  42  43  44  45 0
 3-21G
 ****


