%nproc=1
%NoSave
%Mem=1900MB
#P OB98/GEN NMR

erre ene a

0 1
  C       61.757    -380.849    -165.842
  O       61.658    -381.540    -167.071
  H       62.623    -380.179    -165.850
  H       60.850    -380.253    -165.703
  H       61.843    -381.563    -165.018
  P       62.941    -382.391    -167.515
  C       65.505    -381.994    -167.498
  O       64.213    -381.426    -167.346
  C       66.576    -380.933    -167.284
  O       66.467    -380.372    -165.959
  C       68.006    -381.445    -167.386
  O       68.421    -381.594    -168.742
  C       68.761    -380.315    -166.699
  O       68.944    -379.219    -167.617
  C       67.790    -379.905    -165.580
  N       70.506    -379.227    -161.274
  C       70.386    -378.473    -162.396
  N       69.656    -378.723    -163.505
  C       68.986    -379.877    -163.379
  C       69.003    -380.745    -162.302
  C       69.815    -380.388    -161.213
  N       69.938    -381.164    -160.079
  N       68.170    -381.819    -162.527
  C       67.656    -381.607    -163.721
  N       68.125    -380.452    -164.279
  O       62.781    -382.514    -169.104
  O       63.070    -383.735    -166.877
  H       69.542    -379.542    -168.322
  H       63.108    -383.388    -169.390
  H       70.958    -377.552    -162.399
  H       66.947    -382.261    -164.215
  H       67.724    -378.812    -165.487
  H       69.748    -380.611    -166.342
  H       68.145    -382.370    -166.822
  H       66.399    -380.122    -168.007
  H       65.603    -382.407    -168.507
  H       70.368    -380.767    -159.265
  H       69.407    -382.030    -160.038
  H       65.620    -382.806    -166.768
  P       69.704    -382.526    -169.026
  C       72.210    -382.397    -168.367
  O       70.956    -381.726    -168.412
  O       69.910    -382.379    -170.603
  O       69.558    -383.948    -168.610
  H       70.376    -383.161    -170.952
  H       72.946    -381.750    -167.938
  H       72.507    -382.665    -169.359
  H       72.120    -383.281    -167.770

 6  7  8  9  10  11  12  13  14  15  25  28  32  33  34  35 0
 6-311+G(2d,p)
 ****
 36  39  40 0
 6-311+G(2d,p)
 ****
 1  2  3  4  5  16  17  18  19  20  21  22  23  24 0
 3-21G
 ****
 26  27  29  30  31  37  38  41  42  43  44  45  46  47  48 0
 3-21G
 ****


