%nproc=1
%NoSave
%Mem=1900MB
#P OB98/GEN NMR

erre ene a

0 1
  C      -10.717     -38.956     -24.276
  O      -11.529     -38.507     -25.342
  H      -11.293     -39.660     -23.669
  H      -10.425     -38.110     -23.651
  H       -9.827     -39.465     -24.656
  P      -10.810     -37.624     -26.472
  C       -9.136     -35.668     -26.143
  O      -10.376     -36.249     -25.767
  C       -8.637     -34.735     -25.043
  O       -8.574     -35.434     -23.780
  C       -7.241     -34.171     -25.287
  O       -7.271     -33.042     -26.150
  C       -6.852     -33.770     -23.873
  O       -7.511     -32.539     -23.517
  C       -7.419     -34.934     -23.050
  N       -3.277     -36.424     -20.538
  C       -3.947     -35.216     -20.507
  N       -3.435     -34.264     -19.698
  N       -5.020     -34.959     -21.209
  C       -5.412     -35.999     -21.982
  C       -4.834     -37.244     -22.097
  C       -3.654     -37.516     -21.309
  O       -3.035     -38.576     -21.281
  N       -5.523     -38.038     -22.973
  C       -6.505     -37.272     -23.404
  N       -6.479     -36.022     -22.838
  O      -12.022     -37.182     -27.425
  O       -9.740     -38.318     -27.244
  H       -7.179     -32.287     -22.636
  H      -11.703     -37.159     -28.347
  H       -2.449     -36.565     -19.985
  H       -7.258     -37.573     -24.119
  H       -7.768     -34.615     -22.062
  H       -5.780     -33.603     -23.763
  H       -2.584     -34.380     -19.168
  H       -6.553     -34.942     -25.650
  H       -3.927     -33.383     -19.633
  H       -9.368     -33.924     -24.932
  H       -9.271     -35.097     -27.067
  H       -8.408     -36.466     -26.320
  P       -5.862     -32.440     -26.635
  C       -3.742     -31.745     -25.306
  O       -5.160     -31.868     -25.311
  O       -6.291     -31.116     -27.427
  O       -5.039     -33.356     -27.473
  H       -5.592     -30.867     -28.062
  H       -3.421     -31.353     -24.363
  H       -3.439     -31.082     -26.090
  H       -3.300     -32.707     -25.461

 6  7  8  9  10  11  12  13  14  15  26  29  33  34 0
 6-311+G(2d,p)
 ****
 36  38  39  40  41 0
 6-311+G(2d,p)
 ****
 1  2  3  4  5  16  17  18  19  20  21  22  23  24  25 0
 3-21G
 ****
 27  28  30  31  32  35  37  42  43  44  45  46  47 0
 3-21G
 ****
 48  49 0
 3-21G
 ****


