%nproc=1
%NoSave
%Mem=1900MB
#P OB98/GEN NMR

erre ene a

0 1
  C     -625.457     120.917    -549.437
  O     -624.919     119.596    -549.546
  P     -623.506     119.429    -550.312
  C     -623.388     117.052    -551.398
  O     -623.096     117.869    -550.274
  C     -623.049     115.599    -551.110
  O     -621.695     115.444    -550.588
  C     -623.951     114.943    -550.057
  O     -625.172     114.513    -550.634
  C     -623.098     113.760    -549.642
  O     -623.228     112.704    -550.606
  C     -621.676     114.326    -549.669
  N     -619.869     112.893    -545.089
  C     -620.276     112.185    -546.183
  N     -620.760     112.646    -547.352
  C     -620.778     113.979    -547.366
  C     -620.402     114.837    -546.331
  C     -619.934     114.240    -545.164
  N     -619.496     114.984    -544.071
  N     -620.585     116.148    -546.710
  C     -621.056     116.090    -547.953
  N     -621.208     114.803    -548.374
  O     -622.467     120.114    -549.287
  O     -623.454     120.069    -551.654
  H     -622.548     112.032    -550.409
  H     -621.763     120.548    -549.791
  H     -620.203     111.080    -546.084
  H     -621.303     116.949    -548.559
  H     -620.950     113.606    -550.048
  H     -623.395     113.339    -548.681
  H     -624.108     115.622    -549.211
  H     -623.113     115.035    -552.065
  H     -622.828     117.409    -552.275
  H     -619.148     114.464    -543.260
  H     -619.530     115.988    -544.116
  H     -624.448     117.162    -551.651
  P     -626.444     114.424    -549.669
  C     -628.067     112.575    -550.544
  O     -627.665     113.937    -550.585
  O     -626.784     115.972    -549.362
  O     -626.234     113.644    -548.403
  H     -627.176     116.055    -548.471
  H     -629.073     112.491    -550.974
  H     -628.088     112.209    -549.505
  H     -627.367     111.969    -551.120
  H     -626.388     120.881    -548.911
  H     -625.616     121.319    -550.416
  H     -624.770     121.539    -548.903

 3  4  5  6  7  8  9  10  11  12  22  25  29  30  31  32 0
 6-311+G(2d,p)
 ****
 33  36  37 0
 6-311+G(2d,p)
 ****
 1  2  13  14  15  16  17  18  19  20  21  23  24  26 0
 3-21G
 ****
 27  28  34  35  38  39  40  41  42  43  44  45  46  47  48 0
 3-21G
 ****


