%nproc=1
%NoSave
%Mem=1900MB
#P OB98/GEN NMR

erre ene a

0 1
  C      110.415    -977.107    -594.763
  O      109.826    -976.211    -595.697
  H      111.471    -977.220    -595.021
  H      109.924    -978.080    -594.831
  H      110.338    -976.718    -593.748
  P      108.373    -975.615    -595.375
  C      109.192    -974.041    -593.492
  O      108.379    -975.158    -593.830
  C      108.349    -972.940    -592.825
  O      107.837    -973.441    -591.569
  C      109.207    -971.706    -592.508
  O      108.424    -970.508    -592.508
  C      109.685    -971.982    -591.088
  O      110.057    -970.800    -590.377
  C      108.483    -972.709    -590.498
  N      110.788    -973.324    -585.989
  C      110.831    -972.239    -586.856
  N      111.600    -971.191    -586.458
  N      110.213    -972.212    -588.006
  C      109.556    -973.365    -588.301
  C      109.459    -974.503    -587.524
  C      110.118    -974.508    -586.242
  O      110.121    -975.447    -585.443
  N      108.708    -975.467    -588.160
  C      108.359    -974.910    -589.304
  N      108.827    -973.624    -589.427
  O      107.427    -976.912    -595.344
  O      107.866    -974.584    -596.343
  H      110.673    -970.307    -590.949
  H      106.503    -976.660    -595.505
  H      111.257    -973.279    -585.098
  H      107.762    -975.396    -590.074
  H      107.752    -971.998    -590.096
  H      110.579    -972.616    -591.151
  H      112.234    -971.252    -585.682
  H      110.049    -971.587    -593.191
  H      111.882    -970.541    -587.203
  H      107.479    -972.705    -593.460
  H      109.641    -973.679    -594.423
  H      110.008    -974.354    -592.834
  P      108.482    -969.556    -593.797
  C      106.789    -970.413    -595.640
  O      108.091    -970.391    -595.100
  O      110.039    -969.259    -593.987
  O      107.692    -968.281    -593.666
  H      110.228    -968.312    -593.851
  H      106.773    -971.039    -596.508
  H      106.499    -969.420    -595.911
  H      106.107    -970.797    -594.911

 6  7  8  9  10  11  12  13  14  15  26  29  33  34 0
 6-311+G(2d,p)
 ****
 36  38  39  40  41 0
 6-311+G(2d,p)
 ****
 1  2  3  4  5  16  17  18  19  20  21  22  23  24  25 0
 3-21G
 ****
 27  28  30  31  32  35  37  42  43  44  45  46  47 0
 3-21G
 ****
 48  49 0
 3-21G
 ****


