%nproc=1
%NoSave
%Mem=1900MB
#P OB98/GEN NMR

erre ene a

0 1
  C      237.783     135.074      25.075
  O      238.712     135.890      24.360
  P      239.701     136.851      25.175
  C      238.187     138.853      24.590
  O      239.514     138.356      24.650
  C      238.175     140.392      24.551
  O      238.681     140.919      25.807
  C      239.034     140.968      23.415
  O      238.338     141.926      22.618
  C      240.271     141.476      24.132
  O      240.953     142.492      23.410
  C      239.732     141.858      25.515
  N      240.784     141.852      26.536
  C      241.238     143.088      26.973
  O      240.857     144.154      26.491
  N      242.200     143.065      27.946
  C      242.794     141.949      28.456
  O      243.687     141.981      29.292
  C      242.318     140.667      27.908
  C      241.351     140.678      26.989
  O      241.116     136.390      25.280
  O      239.019     136.912      26.630
  H      241.375     142.081      22.621
  H      239.733     136.908      27.296
  H      242.528     143.957      28.287
  H      242.782     139.763      28.272
  H      240.990     139.753      26.560
  H      239.297     142.864      25.501
  H      240.971     140.639      24.247
  H      239.324     140.190      22.701
  H      237.133     140.706      24.439
  H      237.633     138.520      25.468
  H      237.675     138.424      23.722
  P      237.375     141.557      21.395
  C      238.918     142.270      19.439
  O      237.731     142.519      20.165
  O      235.920     141.465      21.718
  O      237.927     140.129      20.918
  H      237.172     139.556      20.689
  H      239.201     143.184      18.910
  H      238.735     141.482      18.704
  H      239.736     141.975      20.098
  H      237.205     134.500      24.381
  H      237.132     135.697      25.652
  H      238.316     134.414      25.727

 3  4  5  6  7  8  9  10  11  12  13  23  28  29  30  31  32 0
 6-311+G(2d,p)
 ****
 33  34 0
 6-311+G(2d,p)
 ****
 1  2  14  15  16  17  18  19  20  21  22  24  25  26  27 0
 3-21G
 ****
 35  36  37  38  39  40  41  42  43  44  45 0
 3-21G
 ****


