%nproc=1
%NoSave
%Mem=1900MB
#P OB98/GEN NMR

erre ene a

0 1
  C     -806.579    -284.362    -306.351
  O     -805.935    -285.084    -307.382
  H     -807.660    -284.434    -306.493
  H     -806.288    -283.311    -306.382
  H     -806.322    -284.791    -305.378
  P     -804.335    -285.024    -307.421
  C     -804.404    -283.610    -309.600
  O     -803.939    -283.716    -308.261
  C     -804.949    -282.204    -309.838
  O     -805.944    -281.884    -308.834
  C     -803.904    -281.105    -309.733
  O     -803.109    -280.991    -310.901
  C     -804.786    -279.882    -309.517
  O     -805.270    -279.351    -310.756
  C     -805.939    -280.451    -308.669
  N     -805.821    -280.062    -307.263
  C     -806.473    -278.882    -306.913
  O     -807.111    -278.195    -307.710
  N     -806.332    -278.493    -305.612
  C     -805.582    -279.121    -304.659
  O     -805.451    -278.685    -303.523
  C     -804.903    -280.354    -305.093
  C     -805.051    -280.761    -306.360
  O     -803.947    -286.236    -308.394
  O     -803.667    -285.139    -306.090
  H     -803.580    -286.975    -307.870
  H     -804.477    -279.186    -311.307
  H     -806.797    -277.638    -305.334
  H     -804.297    -280.881    -304.364
  H     -804.552    -281.658    -306.705
  H     -806.901    -280.091    -309.047
  H     -804.237    -279.093    -309.015
  H     -803.281    -281.259    -308.838
  H     -805.438    -282.176    -310.824
  H     -805.208    -284.331    -309.772
  H     -803.583    -283.832    -310.287
  P     -801.571    -281.461    -310.805
  C     -800.641    -279.288    -311.967
  O     -800.703    -280.113    -310.813
  O     -801.369    -282.084    -312.263
  O     -801.316    -282.396    -309.670
  H     -801.962    -281.678    -312.918
  H     -800.014    -278.444    -311.769
  H     -801.625    -278.951    -312.218
  H     -800.237    -279.848    -312.784

 6  7  8  9  10  11  12  13  14  15  16  27  31  32  33  34  35 0
 6-311+G(2d,p)
 ****
 36  37 0
 6-311+G(2d,p)
 ****
 1  2  3  4  5  17  18  19  20  21  22  23  24  25 0
 3-21G
 ****
 26  28  29  30  38  39  40  41  42  43  44  45 0
 3-21G
 ****


