%nproc=1
%NoSave
%Mem=1900MB
#P OB98/GEN NMR

erre ene a

0 1
  C     -384.091    -600.566     744.586
  O     -384.493    -599.466     745.385
  P     -383.523    -598.187     745.418
  C     -385.167    -596.678     744.072
  O     -383.884    -597.293     744.137
  C     -385.069    -595.210     744.452
  O     -384.160    -594.520     743.567
  C     -386.383    -594.440     744.364
  O     -387.227    -594.749     745.466
  C     -385.866    -593.006     744.338
  O     -385.519    -592.583     745.668
  C     -384.602    -593.137     743.475
  N     -384.762    -589.325     740.059
  C     -384.543    -589.334     741.386
  N     -384.536    -590.381     742.235
  C     -384.782    -591.529     741.574
  C     -385.053    -591.680     740.223
  C     -385.033    -590.507     739.446
  N     -385.263    -590.501     738.086
  N     -385.283    -592.997     739.911
  C     -385.149    -593.639     741.051
  N     -384.834    -592.797     742.083
  O     -382.094    -598.804     745.050
  O     -383.493    -597.460     746.725
  H     -385.119    -591.691     745.594
  H     -381.379    -598.338     745.522
  H     -384.339    -588.358     741.844
  H     -385.267    -594.703     741.179
  H     -383.776    -592.510     743.836
  H     -386.602    -592.292     743.944
  H     -386.899    -594.676     743.427
  H     -384.652    -595.147     745.471
  H     -385.846    -597.181     744.771
  H     -385.377    -589.609     737.639
  H     -385.604    -591.354     737.654
  H     -385.566    -596.798     743.058
  P     -388.730    -594.179     745.427
  C     -389.342    -596.052     743.773
  O     -389.272    -594.654     743.992
  O     -388.471    -592.615     745.202
  O     -389.571    -594.539     746.596
  H     -387.836    -592.443     744.482
  H     -389.777    -596.233     742.793
  H     -389.968    -596.524     744.539
  H     -388.332    -596.486     743.806
  H     -384.823    -601.343     744.655
  H     -383.148    -600.933     744.933
  H     -383.999    -600.252     743.567

 3  4  5  6  7  8  9  10  11  12  22  25  29  30  31  32 0
 6-311+G(2d,p)
 ****
 33  36  37 0
 6-311+G(2d,p)
 ****
 1  2  13  14  15  16  17  18  19  20  21  23  24  26 0
 3-21G
 ****
 27  28  34  35  38  39  40  41  42  43  44  45  46  47  48 0
 3-21G
 ****


