%nproc=1
%NoSave
%Mem=1900MB
#P OB98/GEN NMR

erre ene a

0 1
  C      941.856    -846.549    -924.015
  O      941.875    -845.765    -925.193
  H      941.332    -847.474    -924.225
  H      941.319    -846.007    -923.233
  H      942.866    -846.782    -923.676
  P      942.885    -844.529    -925.267
  C      941.880    -842.217    -924.659
  O      942.406    -843.446    -924.171
  C      941.572    -841.261    -923.506
  O      942.807    -840.731    -922.959
  C      940.747    -840.057    -924.030
  O      939.913    -839.499    -923.006
  C      941.839    -839.039    -924.368
  O      941.361    -837.695    -924.399
  C      942.856    -839.313    -923.276
  N      946.087    -835.580    -924.603
  C      944.724    -835.525    -924.430
  N      944.122    -834.337    -924.673
  N      943.988    -836.577    -924.073
  C      944.709    -837.712    -923.951
  C      946.063    -837.893    -924.124
  C      946.865    -836.738    -924.464
  O      948.075    -836.727    -924.655
  N      946.435    -839.210    -923.916
  C      945.296    -839.816    -923.650
  N      944.219    -838.941    -923.633
  O      942.500    -843.796    -926.651
  O      944.354    -844.859    -925.224
  H      940.643    -837.654    -925.031
  H      943.250    -843.293    -926.989
  H      946.600    -834.760    -924.871
  H      945.206    -840.885    -923.428
  H      942.604    -838.772    -922.359
  H      942.211    -839.271    -925.376
  H      944.614    -833.573    -925.111
  H      940.148    -840.310    -924.877
  H      943.116    -834.353    -924.846
  H      941.073    -841.788    -922.688
  H      940.957    -842.454    -925.213
  H      942.579    -841.759    -925.365
  P      938.410    -840.060    -922.912
  C      937.257    -838.747    -924.896
  O      937.773    -839.971    -924.395
  O      937.651    -838.913    -922.092
  O      938.295    -841.397    -922.266
  H      937.471    -839.212    -921.189
  H      936.884    -838.897    -925.888
  H      938.035    -838.013    -924.915
  H      936.463    -838.409    -924.263

 6  7  8  9  10  11  12  13  14  15  26  29  33  34 0
 6-311+G(2d,p)
 ****
 36  38  39  40  41 0
 6-311+G(2d,p)
 ****
 1  2  3  4  5  16  17  18  19  20  21  22  23  24  25 0
 3-21G
 ****
 27  28  30  31  32  35  37  42  43  44  45  46  47 0
 3-21G
 ****
 48  49 0
 3-21G
 ****


