%nproc=1
%NoSave
%Mem=1900MB
#P OB98/GEN NMR

erre ene a

0 1
  C      113.069     -28.452      76.804
  O      113.914     -29.526      76.411
  P      115.029     -30.033      77.446
  C      113.560     -32.144      77.778
  O      114.326     -31.120      78.398
  C      114.025     -33.529      78.229
  O      113.033     -34.513      77.832
  C      115.367     -33.974      77.638
  O      116.018     -34.785      78.623
  C      114.953     -34.849      76.469
  O      115.990     -35.739      76.067
  C      113.716     -35.523      77.058
  N      113.289     -38.869      73.217
  C      114.301     -38.608      74.072
  N      114.339     -37.702      75.071
  C      113.181     -37.023      75.141
  C      112.077     -37.156      74.316
  C      112.155     -38.136      73.313
  N      111.123     -38.412      72.445
  N      111.090     -36.263      74.681
  C      111.588     -35.605      75.707
  N      112.838     -36.047      76.035
  O      115.219     -28.765      78.405
  O      116.321     -30.451      76.836
  H      115.672     -36.250      75.298
  H      116.103     -28.372      78.265
  H      115.195     -39.211      73.942
  H      111.089     -34.808      76.239
  H      113.977     -36.347      77.735
  H      114.692     -34.221      75.610
  H      116.018     -33.148      77.335
  H      114.068     -33.539      79.325
  H      113.687     -32.069      76.695
  H      111.204     -39.218      71.849
  H      110.211     -38.007      72.630
  H      112.502     -32.005      78.016
  P      117.620     -34.832      78.581
  C      117.476     -32.996      80.408
  O      118.138     -33.476      79.252
  O      117.956     -34.642      77.028
  O      118.206     -36.095      79.123
  H      118.805     -35.072      76.816
  H      118.204     -32.495      81.049
  H      117.002     -33.804      80.972
  H      116.711     -32.274      80.108
  H      112.383     -28.230      76.013
  H      113.664     -27.588      77.013
  H      112.524     -28.730      77.682

 3  4  5  6  7  8  9  10  11  12  22  25  29  30  31  32 0
 6-311+G(2d,p)
 ****
 33  36  37 0
 6-311+G(2d,p)
 ****
 1  2  13  14  15  16  17  18  19  20  21  23  24  26 0
 3-21G
 ****
 27  28  34  35  38  39  40  41  42  43  44  45  46  47  48 0
 3-21G
 ****


