%nproc=1
%NoSave
%Mem=1900MB
#P OB98/GEN NMR

erre ene a

0 1
  C     -414.242     169.411     161.720
  O     -415.490     169.942     162.121
  H     -414.173     168.375     162.063
  H     -413.429     169.987     162.175
  H     -414.150     169.432     160.629
  P     -415.870     171.397     161.574
  C     -414.246     173.443     161.310
  O     -414.770     172.422     162.147
  C     -413.142     174.203     162.045
  O     -412.148     173.304     162.568
  C     -412.348     175.147     161.158
  O     -413.086     176.284     160.771
  C     -411.170     175.456     162.070
  O     -411.524     176.431     163.061
  C     -410.923     174.074     162.727
  N     -409.773     173.382     162.162
  C     -408.520     173.924     162.482
  O     -408.439     174.916     163.207
  N     -407.399     173.342     161.943
  C     -407.513     172.301     161.182
  N     -406.364     171.777     160.674
  C     -408.811     171.683     160.841
  C     -409.889     172.273     161.356
  O     -417.174     171.762     162.425
  O     -416.048     171.495     160.093
  H     -410.700     176.641     163.545
  H     -417.047     171.679     163.385
  H     -408.854     170.810     160.206
  H     -410.878     171.886     161.154
  H     -410.760     174.184     163.806
  H     -410.316     175.856     161.518
  H     -411.964     174.608     160.281
  H     -413.601     174.736     162.889
  H     -405.493     172.240     160.911
  H     -415.035     174.126     160.984
  H     -406.329     170.989     160.044
  H     -413.837     172.959     160.416
  P     -412.685     177.106     159.453
  C     -410.726     178.625     158.752
  O     -411.359     177.930     159.827
  O     -413.778     177.927     158.857
  O     -412.113     175.972     158.471
  H     -411.344     175.485     158.817
  H     -409.859     179.134     159.118
  H     -411.409     179.336     158.336
  H     -410.436     177.925     157.996

 6  7  8  9  10  11  12  13  14  15  16  26  30  31  32  33  35 0
 6-311+G(2d,p)
 ****
 37  38 0
 6-311+G(2d,p)
 ****
 1  2  3  4  5  17  18  19  20  21  22  23  24  25 0
 3-21G
 ****
 27  28  29  34  36  39  40  41  42  43  44  45  46 0
 3-21G
 ****


