%nproc=1
%NoSave
%Mem=1900MB
#P OB98/GEN NMR

erre ene a

0 1
  C     -205.389    -127.698    -292.327
  O     -206.499    -128.547    -292.106
  H     -204.598    -128.278    -292.808
  H     -205.015    -127.307    -291.379
  H     -205.680    -126.875    -292.986
  P     -207.767    -127.898    -291.367
  C     -208.068    -130.130    -290.109
  O     -208.678    -129.159    -290.960
  C     -208.665    -131.516    -290.380
  O     -208.004    -132.087    -291.537
  C     -208.490    -132.490    -289.213
  O     -209.658    -133.304    -289.097
  C     -207.310    -133.347    -289.642
  O     -207.327    -134.639    -289.027
  C     -207.482    -133.379    -291.161
  N     -205.332    -135.572    -295.232
  C     -206.620    -135.376    -294.891
  N     -207.111    -134.763    -293.784
  C     -206.104    -134.287    -293.026
  C     -204.747    -134.416    -293.245
  C     -204.357    -135.104    -294.415
  N     -203.047    -135.328    -294.761
  N     -204.030    -133.835    -292.213
  C     -204.949    -133.354    -291.394
  N     -206.217    -133.623    -291.832
  O     -208.468    -126.817    -292.118
  O     -207.136    -127.460    -289.963
  H     -208.202    -135.044    -289.205
  H     -206.559    -128.160    -289.599
  H     -207.362    -135.767    -295.581
  H     -204.748    -132.820    -290.468
  H     -208.185    -134.150    -291.498
  H     -206.374    -132.852    -289.366
  H     -208.295    -131.981    -288.269
  H     -209.724    -131.403    -290.647
  H     -208.226    -129.869    -289.059
  H     -202.861    -135.819    -295.619
  H     -202.309    -134.967    -294.172
  H     -207.000    -130.131    -290.316
  P     -210.258    -133.568    -287.636
  C     -211.177    -135.929    -287.118
  O     -211.428    -134.677    -287.753
  O     -210.612    -132.354    -286.844
  O     -209.081    -134.395    -286.923
  H     -209.029    -134.124    -285.985
  H     -212.016    -136.577    -287.262
  H     -211.023    -135.773    -286.071
  H     -210.304    -136.376    -287.544

 6  7  8  9  10  11  12  13  14  15  25  28  32  33  34  35 0
 6-311+G(2d,p)
 ****
 36  39  40 0
 6-311+G(2d,p)
 ****
 1  2  3  4  5  16  17  18  19  20  21  22  23  24 0
 3-21G
 ****
 26  27  29  30  31  37  38  41  42  43  44  45  46  47 0
 3-21G
 ****
 48 0
 3-21G
 ****


