%nproc=1
%NoSave
%Mem=1900MB
#P OB98/GEN NMR

erre ene a

0 1
  C       10.179      11.823     -64.699
  O       10.918      13.007     -64.476
  H        9.153      11.978     -64.356
  H       10.615      10.991     -64.140
  H       10.163      11.588     -65.767
  P       12.485      12.960     -64.816
  C       14.429      11.383     -64.117
  O       13.152      11.919     -63.796
  C       14.986      10.633     -62.911
  O       15.111      11.538     -61.787
  C       14.096       9.500     -62.420
  O       14.218       8.326     -63.206
  C       14.626       9.309     -61.009
  O       15.778       8.456     -60.986
  C       14.987      10.746     -60.588
  N       14.003      11.302     -59.662
  C       14.168      10.951     -58.325
  O       15.076      10.225     -57.924
  N       13.224      11.436     -57.460
  C       12.129      12.175     -57.803
  O       11.291      12.530     -56.984
  C       11.998      12.501     -59.232
  C       12.924      12.052     -60.085
  O       13.011      14.383     -64.308
  O       12.809      12.724     -66.254
  H       13.196      14.959     -65.073
  H       15.492       7.605     -61.371
  H       13.327      11.196     -56.487
  H       11.140      13.085     -59.539
  H       12.842      12.269     -61.146
  H       15.967      10.765     -60.096
  H       13.874       8.853     -60.368
  H       13.052       9.833     -62.366
  H       15.986      10.256     -63.165
  H       15.115      12.196     -64.377
  H       14.330      10.718     -64.982
  P       12.955       7.338     -63.275
  C       11.651       6.094     -61.357
  O       12.873       6.633     -61.838
  O       13.522       6.206     -64.253
  O       11.709       8.011     -63.739
  H       14.492       6.139     -64.205
  H       11.805       5.671     -60.386
  H       11.308       5.333     -62.027
  H       10.918       6.871     -61.295

 6  7  8  9  10  11  12  13  14  15  16  27  31  32  33  34  35 0
 6-311+G(2d,p)
 ****
 36  37 0
 6-311+G(2d,p)
 ****
 1  2  3  4  5  17  18  19  20  21  22  23  24  25 0
 3-21G
 ****
 26  28  29  30  38  39  40  41  42  43  44  45 0
 3-21G
 ****


