%nproc=1
%NoSave
%Mem=1900MB
#P OB98/GEN NMR

erre ene a

0 1
  C     -123.919    -219.830     128.502
  O     -125.293    -219.435     128.595
  P     -125.936    -218.786     127.270
  C     -128.395    -219.315     127.917
  O     -127.431    -218.312     127.625
  C     -128.392    -219.692     129.402
  O     -128.682    -218.516     130.195
  C     -129.416    -220.765     129.795
  O     -128.837    -221.606     130.801
  C     -130.523    -219.962     130.456
  O     -131.311    -220.758     131.339
  C     -129.703    -218.872     131.142
  N     -130.879    -215.690     134.893
  C     -129.930    -216.694     134.853
  N     -129.211    -216.889     135.977
  N     -129.708    -217.438     133.799
  C     -130.478    -217.108     132.735
  C     -131.445    -216.128     132.651
  C     -131.710    -215.343     133.836
  O     -132.571    -214.474     133.953
  N     -132.018    -216.096     131.401
  C     -131.404    -217.057     130.737
  N     -130.470    -217.703     131.507
  O     -126.145    -220.051     126.311
  O     -125.073    -217.752     126.628
  H     -130.692    -221.281     131.882
  H     -125.682    -219.907     125.463
  H     -131.023    -215.162     135.735
  H     -131.613    -217.343     129.717
  H     -129.209    -219.252     132.043
  H     -131.184    -219.548     129.685
  H     -129.285    -216.311     136.799
  H     -129.778    -221.374     128.961
  H     -128.480    -217.591     135.951
  H     -127.378    -220.021     129.668
  H     -128.186    -220.205     127.321
  H     -129.384    -218.943     127.625
  P     -128.414    -223.084     130.337
  C     -126.072    -223.400     131.427
  O     -127.465    -223.649     131.496
  O     -127.408    -222.814     129.120
  O     -129.559    -223.955     129.947
  H     -127.415    -223.573     128.503
  H     -125.823    -222.660     130.664
  H     -125.555    -224.335     131.197
  H     -125.730    -223.032     132.398
  H     -123.603    -220.245     129.436
  H     -123.317    -218.976     128.269
  H     -123.810    -220.564     127.731

 3  4  5  6  7  8  9  10  11  12  23  26  30  31  33  0
 6-311+G(2d,p)
 ****
 35  36  37  38 0
 6-311+G(2d,p)
 ****
 1  2  13  14  15  16  17  18  19  20  21  22  24  25  27  28  29 0
 3-21G
 ****
 32  34  39  40  41  42  43  44  45  46  47  48  49 0
 3-21G
 ****


