%nproc=1
%NoSave
%Mem=1900MB
#P OB98/GEN NMR

erre ene a

0 1
  C       94.357    -202.426     892.086
  O       95.174    -201.774     891.104
  P       96.767    -201.906     891.291
  C       97.064    -203.301     889.108
  O       97.231    -203.235     890.525
  C       97.617    -204.617     888.561
  O       96.900    -205.743     889.102
  C       97.492    -204.762     887.056
  O       98.522    -204.055     886.371
  C       97.670    -206.263     886.881
  O       99.071    -206.590     886.883
  C       96.989    -206.821     888.138
  N       94.088    -210.968     887.790
  C       95.433    -210.849     888.061
  N       96.101    -211.998     888.298
  N       96.071    -209.713     888.101
  C       95.273    -208.642     887.863
  C       93.926    -208.624     887.579
  C       93.237    -209.897     887.516
  O       92.047    -210.058     887.249
  N       93.459    -207.346     887.423
  C       94.517    -206.581     887.633
  N       95.646    -207.323     887.889
  O       96.915    -202.306     892.841
  O       97.524    -200.664     890.959
  H       99.471    -206.142     886.112
  H       97.783    -202.010     893.177
  H       93.643    -211.872     887.768
  H       94.519    -205.501     887.608
  H       97.572    -207.628     888.602
  H       97.261    -206.636     885.938
  H       95.663    -212.908     888.358
  H       96.493    -204.458     886.706
  H       97.089    -211.927     888.540
  H       98.671    -204.697     888.859
  H       97.592    -202.462     888.641
  H       96.003    -203.184     888.870
  P       98.293    -202.483     886.120
  C      100.188    -201.864     887.782
  O       98.818    -201.751     887.447
  O       96.698    -202.334     886.194
  O       98.843    -201.978     884.834
  H       96.404    -201.588     885.644
  H      100.827    -201.744     886.901
  H      100.376    -202.844     888.243
  H      100.440    -201.085     888.508
  H       93.325    -202.266     891.854
  H       94.572    -202.022     893.053
  H       94.565    -203.476     892.083

 3  4  5  6  7  8  9  10  11  12  23  26  30  31  33  0
 6-311+G(2d,p)
 ****
 35  36  37  38 0
 6-311+G(2d,p)
 ****
 1  2  13  14  15  16  17  18  19  20  21  22  24  25  27  28  29 0
 3-21G
 ****
 32  34  39  40  41  42  43  44  45  46  47  48  49 0
 3-21G
 ****


