%nproc=1
%NoSave
%Mem=1900MB
#P OB98/GEN NMR

erre ene a

0 1
  C       20.922       1.057      33.839
  O       20.979      -0.328      33.562
  H       21.896       1.376      34.222
  H       20.164       1.268      34.598
  H       20.704       1.618      32.928
  P       19.646      -1.061      33.062
  C       18.822      -1.155      35.512
  O       18.528      -0.773      34.173
  C       17.635      -0.863      36.427
  O       17.261       0.526      36.334
  C       16.377      -1.654      36.088
  O       16.502      -2.995      36.514
  C       15.326      -0.832      36.815
  O       15.331      -1.118      38.222
  C       15.832       0.607      36.549
  N       15.174       1.256      35.419
  C       13.819       1.563      35.590
  O       13.245       1.273      36.638
  N       13.152       2.172      34.556
  C       13.785       2.488      33.471
  N       13.068       3.094      32.488
  C       15.220       2.214      33.265
  C       15.843       1.592      34.264
  O       19.786      -2.504      32.685
  O       19.160      -0.173      31.822
  H       14.813      -0.405      38.645
  H       19.500      -0.540      30.984
  H       15.710       2.504      32.347
  H       16.900       1.354      34.193
  H       15.681       1.236      37.436
  H       14.319      -1.032      36.451
  H       16.174      -1.601      35.013
  H       17.951      -1.050      37.461
  H       12.090       3.280      32.683
  H       19.693      -0.573      35.829
  H       13.485       3.527      31.677
  H       19.082      -2.218      35.562
  P       15.673      -4.178      35.819
  C       13.880      -4.093      37.659
  O       14.147      -3.965      36.271
  O       16.210      -5.550      36.049
  O       15.637      -3.757      34.277
  H       16.506      -3.955      33.845
  H       12.838      -3.931      37.838
  H       14.452      -3.368      38.200
  H       14.149      -5.076      37.985

 6  7  8  9  10  11  12  13  14  15  16  26  30  31  32  33  35 0
 6-311+G(2d,p)
 ****
 37  38 0
 6-311+G(2d,p)
 ****
 1  2  3  4  5  17  18  19  20  21  22  23  24  25 0
 3-21G
 ****
 27  28  29  34  36  39  40  41  42  43  44  45  46 0
 3-21G
 ****


