%nproc=1
%NoSave
%Mem=1900MB
#P OB98/GEN NMR

erre ene a

0 1
  C     -107.654     482.973     176.755
  O     -106.623     482.160     176.237
  H     -108.615     482.589     176.402
  H     -107.536     483.999     176.398
  H     -107.646     482.956     177.849
  P     -105.129     482.443     176.751
  C     -104.605     482.830     179.266
  O     -105.063     481.924     178.271
  C     -104.486     482.122     180.615
  O     -105.815     481.756     181.070
  C     -103.638     480.850     180.570
  O     -102.877     480.763     181.778
  C     -104.666     479.732     180.540
  O     -104.156     478.502     181.052
  C     -105.812     480.342     181.356
  N     -107.092     479.720     181.029
  C     -107.361     478.483     181.629
  O     -106.533     477.970     182.383
  N     -108.527     477.836     181.320
  C     -109.322     478.335     180.420
  N     -110.448     477.629     180.133
  C     -109.044     479.601     179.711
  C     -107.930     480.239     180.069
  O     -105.084     484.035     176.906
  O     -104.041     481.926     175.873
  H     -104.054     478.590     182.026
  H     -104.191     484.383     176.726
  H     -109.724     479.961     178.953
  H     -107.641     481.169     179.598
  H     -105.627     480.223     182.432
  H     -104.987     479.557     179.505
  H     -102.961     480.812     179.710
  H     -104.085     482.833     181.346
  H     -110.592     476.757     180.629
  H     -105.324     483.651     179.357
  H     -111.110     477.897     179.422
  H     -103.635     483.243     178.964
  P     -101.293     480.977     181.648
  C      -99.650     482.986     181.514
  O     -101.002     482.552     181.592
  O     -100.973     480.475     180.163
  O     -100.501     480.224     182.669
  H     -100.492     479.626     180.194
  H      -99.620     484.055     181.484
  H      -99.199     482.592     180.627
  H      -99.114     482.638     182.372

 6  7  8  9  10  11  12  13  14  15  16  26  30  31  32  33  35 0
 6-311+G(2d,p)
 ****
 37  38 0
 6-311+G(2d,p)
 ****
 1  2  3  4  5  17  18  19  20  21  22  23  24  25 0
 3-21G
 ****
 27  28  29  34  36  39  40  41  42  43  44  45  46 0
 3-21G
 ****


