%nproc=1
%NoSave
%Mem=1900MB
#P OB98/GEN NMR

erre ene a

0 1
  C     -199.324     109.022     -10.706
  O     -199.828     107.860     -11.333
  H     -199.250     108.835      -9.631
  H     -200.010     109.858     -10.872
  H     -198.332     109.279     -11.087
  P     -199.703     107.724     -12.924
  C     -198.917     105.265     -12.887
  O     -199.929     106.178     -13.289
  C     -199.258     103.835     -13.324
  O     -200.431     103.376     -12.608
  C     -199.604     103.799     -14.819
  O     -199.297     102.539     -15.411
  C     -201.113     103.993     -14.819
  O     -201.736     103.521     -16.012
  C     -201.507     103.226     -13.556
  N     -206.586     103.439     -13.913
  C     -205.669     102.970     -14.829
  N     -206.161     102.516     -16.005
  N     -204.375     102.960     -14.619
  C     -204.018     103.513     -13.433
  C     -204.837     104.034     -12.456
  C     -206.265     104.002     -12.684
  O     -207.128     104.423     -11.915
  N     -204.107     104.525     -11.398
  C     -202.853     104.307     -11.736
  N     -202.747     103.681     -12.958
  O     -198.137     107.921     -13.202
  O     -200.527     108.688     -13.724
  H     -202.700     103.615     -15.894
  H     -197.989     108.243     -14.107
  H     -207.573     103.409     -14.118
  H     -201.987     104.574     -11.136
  H     -201.618     102.156     -13.776
  H     -201.319     105.067     -14.749
  H     -207.120     102.665     -16.278
  H     -199.098     104.587     -15.376
  H     -205.501     102.447     -16.784
  H     -198.439     103.153     -13.063
  H     -198.848     105.318     -11.794
  H     -197.949     105.571     -13.293
  P     -198.322     102.534     -16.684
  C     -197.414     100.100     -16.308
  O     -198.111     101.013     -17.139
  O     -196.905     102.963     -16.066
  O     -198.756     103.451     -17.780
  H     -196.698     103.886     -16.310
  H     -197.378      99.142     -16.783
  H     -197.920     100.014     -15.369
  H     -196.418     100.455     -16.145

 6  7  8  9  10  11  12  13  14  15  26  29  33  34 0
 6-311+G(2d,p)
 ****
 36  38  39  40  41 0
 6-311+G(2d,p)
 ****
 1  2  3  4  5  16  17  18  19  20  21  22  23  24  25 0
 3-21G
 ****
 27  28  30  31  32  35  37  42  43  44  45  46  47 0
 3-21G
 ****
 48  49 0
 3-21G
 ****


