%nproc=1
%NoSave
%Mem=1900MB
#P OB98/GEN NMR

erre ene a

0 1
  C       16.789    -161.346    -181.339
  O       18.021    -160.921    -181.896
  P       18.118    -160.755    -183.488
  C       19.804    -162.726    -183.635
  O       18.588    -162.164    -184.103
  C       20.217    -163.924    -184.494
  O       21.405    -164.542    -183.926
  C       19.138    -165.011    -184.586
  O       19.201    -165.628    -185.885
  C       19.590    -166.042    -183.573
  O       19.056    -167.332    -183.863
  C       21.107    -165.938    -183.710
  N       22.528    -170.090    -181.202
  C       22.067    -169.963    -182.498
  N       21.880    -171.110    -183.185
  N       21.817    -168.817    -183.068
  C       22.046    -167.752    -182.257
  C       22.517    -167.750    -180.961
  C       22.776    -169.033    -180.337
  O       23.158    -169.215    -179.186
  N       22.650    -166.477    -180.476
  C       22.223    -165.704    -181.457
  N       21.811    -166.431    -182.545
  O       19.409    -159.820    -183.668
  O       16.914    -160.144    -184.123
  H       19.351    -167.565    -184.766
  H       19.124    -158.913    -183.905
  H       22.696    -171.000    -180.802
  H       22.169    -164.622    -181.426
  H       21.471    -166.495    -184.584
  H       19.251    -165.752    -182.569
  H       21.986    -172.031    -182.780
  H       18.119    -164.654    -184.403
  H       21.502    -171.047    -184.124
  H       20.493    -163.564    -185.491
  H       19.674    -163.053    -182.603
  H       20.592    -161.960    -183.654
  P       17.819    -165.680    -186.702
  C       17.007    -167.802    -185.431
  O       16.779    -166.445    -185.758
  O       18.122    -166.735    -187.868
  O       17.372    -164.358    -187.234
  H       17.547    -166.569    -188.639
  H       17.156    -167.882    -184.349
  H       17.879    -168.212    -185.945
  H       16.127    -168.388    -185.713
  H       16.881    -161.409    -180.275
  H       16.533    -162.308    -181.732
  H       16.023    -160.642    -181.590

 3  4  5  6  7  8  9  10  11  12  23  26  30  31 0
 6-311+G(2d,p)
 ****
 33  35  36  37  38 0
 6-311+G(2d,p)
 ****
 1  2  13  14  15  16  17  18  19  20  21  22  24  25 0
 3-21G
 ****
 27  28  29  32  34  39  40  41  42  43  44  45  46  47  48  49 0
 3-21G
 ****


