%nproc=1
%NoSave
%Mem=1900MB
#P OB98/GEN NMR

erre ene a

0 1
  C      130.809    -107.026     415.261
  O      129.562    -106.766     415.887
  P      129.517    -106.704     417.488
  C      129.684    -104.212     418.194
  O      130.376    -105.437     417.963
  C      130.151    -103.569     419.505
  O      130.033    -104.535     420.590
  C      131.606    -103.095     419.475
  O      131.744    -101.915     420.280
  C      132.353    -104.209     420.174
  O      133.594    -103.752     420.714
  C      131.326    -104.632     421.229
  N      133.944    -107.459     424.496
  C      133.774    -106.084     424.461
  N      134.461    -105.370     425.373
  N      132.982    -105.472     423.618
  C      132.363    -106.318     422.756
  C      132.441    -107.695     422.699
  C      133.325    -108.358     423.635
  O      133.542    -109.560     423.706
  N      131.635    -108.206     421.720
  C      131.101    -107.144     421.143
  N      131.537    -105.976     421.716
  O      130.426    -107.952     417.915
  O      128.149    -106.812     418.074
  H      134.025    -103.219     420.012
  H      129.862    -108.678     418.238
  H      134.572    -107.877     425.162
  H      130.419    -107.161     420.305
  H      131.321    -103.954     422.087
  H      132.571    -105.025     419.468
  H      135.135    -105.776     426.009
  H      132.002    -102.898     418.466
  H      134.386    -104.361     425.339
  H      129.476    -102.736     419.742
  H      128.608    -104.418     418.258
  H      129.852    -103.527     417.362
  P      132.571    -100.710     419.620
  C      130.587    -100.032     418.081
  O      131.929    -100.470     418.175
  O      133.997    -101.373     419.295
  O      132.687     -99.500     420.492
  H      134.687    -100.688     419.280
  H      130.569     -99.044     417.602
  H      130.099     -99.961     419.056
  H      130.030    -100.734     417.457
  H      130.680    -107.037     414.199
  H      131.179    -107.976     415.585
  H      131.508    -106.261     415.527

 3  4  5  6  7  8  9  10  11  12  23  26  30  31 0
 6-311+G(2d,p)
 ****
 33  35  36  37  38 0
 6-311+G(2d,p)
 ****
 1  2  13  14  15  16  17  18  19  20  21  22  24  25 0
 3-21G
 ****
 27  28  29  32  34  39  40  41  42  43  44  45  46  47  48  49 0
 3-21G
 ****


