%nproc=1
%NoSave
%Mem=1900MB
#P OB98/GEN NMR

erre ene a

0 1
  C      -87.205     434.999    -575.381
  O      -87.127     433.711    -575.962
  H      -88.229     435.161    -575.024
  H      -86.970     435.767    -576.124
  H      -86.520     435.075    -574.532
  P      -85.700     433.291    -576.574
  C      -85.061     431.481    -574.834
  O      -84.816     432.781    -575.333
  C      -83.854     430.973    -574.040
  O      -82.721     430.772    -574.914
  C      -83.390     431.915    -572.937
  O      -84.167     431.744    -571.763
  C      -81.944     431.476    -572.758
  O      -81.846     430.290    -571.935
  C      -81.519     431.175    -574.203
  N      -77.123     433.455    -575.182
  C      -77.386     432.283    -574.512
  N      -76.319     431.648    -573.961
  N      -78.578     431.780    -574.365
  C      -79.548     432.540    -574.930
  C      -79.412     433.711    -575.638
  C      -78.074     434.235    -575.815
  O      -77.769     435.237    -576.459
  N      -80.628     434.172    -576.076
  C      -81.502     433.301    -575.594
  N      -80.892     432.303    -574.878
  O      -85.026     434.695    -576.952
  O      -85.754     432.375    -577.750
  H      -82.358     430.430    -571.120
  H      -84.439     434.567    -577.722
  H      -76.176     433.783    -575.275
  H      -82.568     433.364    -575.732
  H      -80.810     430.342    -574.259
  H      -81.343     432.243    -572.264
  H      -75.459     432.139    -573.756
  H      -83.416     432.956    -573.277
  H      -76.506     430.796    -573.448
  H      -84.114     429.993    -573.628
  H      -85.243     430.797    -575.676
  H      -85.946     431.491    -574.187
  P      -83.905     432.755    -570.544
  C      -86.157     433.967    -571.050
  O      -84.750     434.083    -570.866
  O      -82.390     433.213    -570.765
  O      -84.119     432.165    -569.180
  H      -82.036     433.616    -569.951
  H      -86.571     434.932    -571.255
  H      -86.601     433.570    -570.161
  H      -86.356     433.311    -571.872

 6  7  8  9  10  11  12  13  14  15  26  29  33  34 0
 6-311+G(2d,p)
 ****
 36  38  39  40  41 0
 6-311+G(2d,p)
 ****
 1  2  3  4  5  16  17  18  19  20  21  22  23  24  25 0
 3-21G
 ****
 27  28  30  31  32  35  37  42  43  44  45  46  47 0
 3-21G
 ****
 48  49 0
 3-21G
 ****


