%nproc=1
%NoSave
%Mem=1900MB
#P OB98/GEN NMR

erre ene a

0 1
  C       52.326     117.458      23.503
  O       51.416     118.004      24.437
  H       53.342     117.585      23.885
  H       52.243     117.978      22.544
  H       52.129     116.392      23.364
  P       49.869     118.008      24.004
  C       49.940     120.463      23.123
  O       49.816     119.084      22.812
  C       48.993     121.276      22.247
  O       49.190     120.958      20.853
  C       47.516     121.015      22.519
  O       47.038     121.688      23.672
  C       46.902     121.569      21.247
  O       46.896     123.007      21.300
  C       47.903     121.058      20.185
  N       47.521     119.767      19.610
  C       48.141     119.408      18.407
  O       48.954     120.160      17.873
  N       47.798     118.214      17.817
  C       46.923     117.442      18.382
  N       46.612     116.280      17.747
  C       46.260     117.773      19.656
  C       46.600     118.935      20.207
  O       49.144     118.783      25.203
  O       49.275     116.679      23.681
  H       47.826     123.296      21.267
  H       48.199     118.948      24.971
  H       45.529     117.102      20.083
  H       46.151     119.247      21.144
  H       48.014     121.783      19.371
  H       45.871     121.248      21.093
  H       47.299     119.943      22.574
  H       49.240     122.338      22.377
  H       47.036     116.109      16.845
  H       50.977     120.766      22.942
  H       45.820     115.708      18.013
  H       49.697     120.634      24.176
  P       45.987     120.912      24.606
  C       44.019     122.515      24.058
  O       44.528     121.190      24.000
  O       45.996     121.773      25.952
  O       46.311     119.472      24.858
  H       45.936     121.199      26.739
  H       43.044     122.542      23.618
  H       44.671     123.171      23.521
  H       43.959     122.830      25.079

 6  7  8  9  10  11  12  13  14  15  16  26  30  31  32  33  35 0
 6-311+G(2d,p)
 ****
 37  38 0
 6-311+G(2d,p)
 ****
 1  2  3  4  5  17  18  19  20  21  22  23  24  25 0
 3-21G
 ****
 27  28  29  34  36  39  40  41  42  43  44  45  46 0
 3-21G
 ****


