%nproc=1
%NoSave
%Mem=1900MB
#P OB98/GEN NMR

erre ene a

0 1
  C     -548.577     303.758    -220.879
  O     -548.136     305.009    -221.351
  H     -547.916     302.984    -221.271
  H     -549.592     303.551    -221.234
  H     -548.549     303.721    -219.786
  P     -548.959     306.331    -220.960
  C     -546.769     307.159    -219.900
  O     -548.167     306.975    -219.716
  C     -546.073     307.493    -218.576
  O     -546.074     306.319    -217.715
  C     -544.618     307.954    -218.737
  O     -544.390     309.128    -217.959
  C     -543.811     306.787    -218.172
  O     -542.530     307.177    -217.710
  C     -544.775     306.268    -217.091
  N     -544.428     304.936    -216.642
  C     -543.143     304.782    -216.077
  O     -542.403     305.759    -215.990
  N     -542.729     303.537    -215.704
  C     -543.505     302.514    -215.892
  N     -543.021     301.306    -215.518
  C     -544.852     302.622    -216.507
  C     -545.244     303.843    -216.851
  O     -550.420     306.117    -220.744
  O     -548.649     307.368    -222.144
  H     -542.008     306.370    -217.516
  H     -549.369     308.043    -222.169
  H     -545.450     301.732    -216.652
  H     -546.213     304.020    -217.311
  H     -544.793     306.940    -216.224
  H     -543.683     306.025    -218.948
  H     -544.349     308.155    -219.772
  H     -546.679     308.251    -218.055
  H     -542.100     301.274    -215.113
  H     -546.621     307.968    -220.632
  H     -543.517     300.431    -215.648
  H     -546.349     306.233    -220.302
  P     -544.619     310.531    -218.699
  C     -546.947     310.938    -217.616
  O     -546.207     310.763    -218.820
  O     -544.157     310.236    -220.207
  O     -543.852     311.656    -218.091
  H     -543.328     310.707    -220.390
  H     -547.981     311.081    -217.851
  H     -546.578     311.795    -217.092
  H     -546.837     310.070    -217.001

 6  7  8  9  10  11  12  13  14  15  16  26  30  31  32  33  35 0
 6-311+G(2d,p)
 ****
 37  38 0
 6-311+G(2d,p)
 ****
 1  2  3  4  5  17  18  19  20  21  22  23  24  25 0
 3-21G
 ****
 27  28  29  34  36  39  40  41  42  43  44  45  46 0
 3-21G
 ****


