%nproc=1
%NoSave
%Mem=1900MB
#P OB98/GEN NMR

erre ene a

0 1
  C     -386.678     890.430     542.801
  O     -386.952     891.494     541.871
  P     -386.661     891.378     540.291
  C     -386.047     893.786     539.561
  O     -387.051     892.781     539.620
  C     -386.659     895.156     539.270
  O     -387.435     895.111     538.053
  C     -387.632     895.670     540.315
  O     -386.988     896.101     541.496
  C     -388.341     896.786     539.546
  O     -387.597     898.008     539.591
  C     -388.348     896.227     538.097
  N     -389.673     895.842     537.647
  C     -390.382     896.791     536.912
  O     -389.923     897.921     536.731
  N     -391.615     896.442     536.392
  C     -392.126     895.292     536.688
  N     -393.338     894.990     536.133
  C     -391.474     894.315     537.577
  C     -390.262     894.651     538.018
  O     -387.302     890.198     539.640
  O     -385.068     891.312     540.164
  H     -384.827     890.846     539.335
  H     -388.065     898.648     539.012
  H     -391.959     893.379     537.828
  H     -389.698     893.984     538.667
  H     -387.935     896.967     537.410
  H     -389.333     896.996     539.937
  H     -388.352     894.877     540.549
  H     -385.827     895.867     539.132
  H     -393.750     895.686     535.523
  H     -385.345     893.526     538.758
  H     -393.816     894.110     536.281
  H     -385.497     893.796     540.509
  P     -387.660     895.688     542.891
  C     -386.688     897.440     544.543
  O     -386.653     896.112     544.064
  O     -387.595     894.092     542.888
  O     -389.067     896.174     543.069
  H     -388.422     893.724     543.269
  H     -386.353     897.446     545.592
  H     -387.702     897.858     544.504
  H     -386.020     898.065     543.954
  H     -386.953     890.739     543.788
  H     -385.634     890.196     542.778
  H     -387.243     889.563     542.528

 3  4  5  6  7  8  9  10  11  12  13  24  27  28  29  30  32 0
 6-311+G(2d,p)
 ****
 34  35 0
 6-311+G(2d,p)
 ****
 1  2  14  15  16  17  18  19  20  21  22  23  25  26 0
 3-21G
 ****
 31  33  36  37  38  39  40  41  42  43  44  45  46 0
 3-21G
 ****


