%nproc=1
%NoSave
%Mem=1900MB
#P OB98/GEN NMR

erre ene a

0 1
  C       83.227      78.673     190.936
  O       82.788      79.547     191.965
  P       82.108      80.936     191.531
  C       84.339      82.242     191.411
  O       83.216      81.742     190.693
  C       84.797      83.581     190.837
  O       85.485      83.341     189.574
  C       83.654      84.575     190.559
  O       84.047      85.885     191.001
  C       83.570      84.607     189.042
  O       83.019      85.830     188.560
  C       85.037      84.380     188.677
  N       84.776      85.946     183.880
  C       84.701      86.673     185.047
  N       84.470      88.001     184.919
  N       84.840      86.153     186.242
  C       85.101      84.821     186.215
  C       85.204      83.992     185.122
  C       84.986      84.571     183.812
  O       84.952      83.964     182.747
  N       85.493      82.702     185.500
  C       85.557      82.751     186.815
  N       85.281      84.005     187.302
  O       82.019      81.734     192.914
  O       80.768      80.817     190.886
  H       83.355      86.541     189.140
  H       81.093      82.001     193.081
  H       84.641      86.389     182.987
  H       85.770      81.902     187.458
  H       85.624      85.286     188.886
  H       82.938      83.778     188.699
  H       84.390      88.472     184.033
  H       82.698      84.300     191.019
  H       84.439      88.554     185.767
  H       85.534      84.021     191.521
  H       85.158      81.521     191.340
  H       84.060      82.359     192.464
  P       82.980      86.671     191.906
  C       82.095      87.962     189.823
  O       81.801      87.108     190.911
  O       83.729      88.046     192.247
  O       82.563      85.928     193.135
  H       83.374      88.435     193.071
  H       83.170      88.105     189.686
  H       81.629      88.934     189.997
  H       81.680      87.525     188.909
  H       83.655      77.795     191.372
  H       83.962      79.168     190.337
  H       82.394      78.397     190.323

 3  4  5  6  7  8  9  10  11  12  23  26  30  31  33  0
 6-311+G(2d,p)
 ****
 35  36  37  38 0
 6-311+G(2d,p)
 ****
 1  2  13  14  15  16  17  18  19  20  21  22  24  25  27  28  29 0
 3-21G
 ****
 32  34  39  40  41  42  43  44  45  46  47  48  49 0
 3-21G
 ****


