%nproc=1
%NoSave
%Mem=1900MB
#P OB98/GEN NMR

erre ene a

0 1
  C      137.792    -330.776     154.348
  O      137.230    -331.149     153.103
  H      137.513    -331.509     155.111
  H      138.883    -330.766     154.252
  H      137.452    -329.780     154.642
  P      135.651    -330.944     152.917
  C      134.481    -332.834     151.575
  O      135.264    -331.647     151.525
  C      135.019    -333.870     150.585
  O      134.783    -333.386     149.233
  C      136.524    -334.156     150.725
  O      136.743    -335.549     150.512
  C      137.133    -333.380     149.565
  O      138.380    -333.914     149.139
  C      136.027    -333.489     148.521
  N      139.131    -331.578     144.972
  C      139.122    -332.768     145.617
  N      138.222    -333.218     146.517
  C      137.222    -332.335     146.672
  C      137.094    -331.087     146.080
  C      138.124    -330.709     145.201
  N      138.178    -329.472     144.592
  N      135.954    -330.449     146.546
  C      135.421    -331.285     147.409
  N      136.154    -332.434     147.527
  O      135.549    -329.376     152.586
  O      134.814    -331.325     154.092
  H      138.765    -333.319     148.463
  H      135.481    -328.872     153.418
  H      139.950    -333.438     145.392
  H      134.536    -331.096     148.001
  H      136.039    -334.447     147.988
  H      137.290    -332.333     149.867
  H      136.946    -333.854     151.692
  H      134.439    -334.792     150.699
  H      133.446    -332.594     151.310
  H      139.011    -329.249     144.068
  H      137.493    -328.777     144.835
  H      134.499    -333.237     152.596
  P      136.739    -336.504     151.801
  C      138.400    -338.232     150.774
  O      137.113    -337.992     151.337
  O      135.183    -336.613     152.172
  O      137.543    -335.977     152.949
  H      135.070    -336.699     153.139
  H      138.490    -339.267     150.519
  H      139.155    -337.973     151.487
  H      138.521    -337.636     149.894

 6  7  8  9  10  11  12  13  14  15  25  28  32  33  34  35 0
 6-311+G(2d,p)
 ****
 36  39  40 0
 6-311+G(2d,p)
 ****
 1  2  3  4  5  16  17  18  19  20  21  22  23  24 0
 3-21G
 ****
 26  27  29  30  31  37  38  41  42  43  44  45  46  47 0
 3-21G
 ****
 48 0
 3-21G
 ****


