%nproc=1
%NoSave
%Mem=1900MB
#P OB98/GEN NMR

erre ene a

0 1
  C      377.629    -145.887     143.291
  O      378.642    -145.276     142.518
  P      380.084    -145.098     143.217
  C      382.260    -144.003     142.278
  O      381.127    -144.819     142.031
  C      383.370    -144.350     141.279
  O      383.930    -145.646     141.583
  C      382.905    -144.417     139.827
  O      382.844    -143.113     139.265
  C      383.977    -145.304     139.206
  O      385.162    -144.544     138.903
  C      384.245    -146.316     140.334
  N      383.933    -150.799     138.011
  C      384.762    -149.722     137.751
  N      385.667    -149.877     136.762
  N      384.708    -148.588     138.409
  C      383.748    -148.572     139.364
  C      382.856    -149.568     139.700
  C      382.962    -150.828     139.003
  O      382.319    -151.845     139.253
  N      382.012    -149.170     140.704
  C      382.412    -147.946     140.990
  N      383.473    -147.542     140.224
  O      380.432    -146.578     143.708
  O      380.128    -144.095     144.325
  H      385.778    -145.102     138.392
  H      380.226    -146.689     144.654
  H      384.034    -151.650     137.481
  H      381.980    -147.324     141.762
  H      385.301    -146.610     140.380
  H      383.649    -145.753     138.269
  H      385.750    -150.712     136.198
  H      381.932    -144.915     139.764
  H      386.281    -149.098     136.557
  H      384.166    -143.608     141.391
  H      382.622    -144.184     143.293
  H      381.973    -142.947     142.185
  P      381.712    -142.842     138.163
  C      380.450    -140.719     137.352
  O      381.598    -141.250     137.984
  O      380.355    -143.242     138.911
  O      381.883    -143.609     136.896
  H      379.739    -143.651     138.277
  H      380.259    -139.722     137.761
  H      379.567    -141.343     137.515
  H      380.639    -140.634     136.278
  H      376.728    -145.945     142.717
  H      377.453    -145.306     144.172
  H      377.939    -146.873     143.570

 3  4  5  6  7  8  9  10  11  12  23  26  30  31 0
 6-311+G(2d,p)
 ****
 33  35  36  37  38 0
 6-311+G(2d,p)
 ****
 1  2  13  14  15  16  17  18  19  20  21  22  24  25 0
 3-21G
 ****
 27  28  29  32  34  39  40  41  42  43  44  45  46  47  48  49 0
 3-21G
 ****


