%nproc=1
%NoSave
%Mem=1900MB
#P OB98/GEN NMR

erre ene a

0 1
  C      270.198      18.172     360.107
  O      271.330      19.046     360.136
  P      272.629      18.549     359.333
  C      272.896      20.028     357.218
  O      272.383      18.827     357.771
  C      273.989      19.732     356.191
  O      273.494      18.971     355.072
  C      274.619      20.986     355.601
  O      275.572      21.520     356.500
  C      275.244      20.444     354.321
  O      276.539      19.861     354.572
  C      274.243      19.357     353.891
  N      271.259      17.677     350.149
  C      272.168      16.990     350.937
  N      272.277      15.666     350.709
  N      272.898      17.553     351.860
  C      272.684      18.887     351.978
  C      271.792      19.671     351.281
  C      270.993      19.035     350.256
  O      270.161      19.592     349.551
  N      271.814      20.971     351.720
  C      272.804      20.991     352.596
  N      273.322      19.741     352.837
  O      272.553      16.954     359.461
  O      273.908      19.083     359.886
  H      277.196      20.576     354.651
  H      273.265      16.634     360.048
  H      270.729      17.191     349.447
  H      273.166      21.876     353.100
  H      274.761      18.459     353.529
  H      275.401      21.231     353.579
  H      271.739      15.163     350.016
  H      273.843      21.721     355.358
  H      272.931      15.143     351.281
  H      274.756      19.131     356.694
  H      273.298      20.664     358.014
  H      272.068      20.587     356.762
  P      275.294      22.978     357.107
  C      274.717      22.395     359.571
  O      274.246      22.810     358.302
  O      274.452      23.700     355.950
  O      276.527      23.757     357.436
  H      274.783      24.605     355.820
  H      274.071      22.814     360.343
  H      275.744      22.725     359.747
  H      274.678      21.304     359.626
  H      269.399      18.605     360.672
  H      270.465      17.228     360.533
  H      269.883      18.030     359.094

 3  4  5  6  7  8  9  10  11  12  23  26  30  31 0
 6-311+G(2d,p)
 ****
 33  35  36  37  38 0
 6-311+G(2d,p)
 ****
 1  2  13  14  15  16  17  18  19  20  21  22  24  25 0
 3-21G
 ****
 27  28  29  32  34  39  40  41  42  43  44  45  46  47  48  49 0
 3-21G
 ****


