%nproc=1
%NoSave
%Mem=1900MB
#P OB98/GEN NMR

erre ene a

0 1
  C     -897.780    1345.909     -53.164
  O     -898.820    1346.200     -52.224
  H     -898.190    1345.274     -53.953
  H     -896.980    1345.367     -52.665
  H     -897.400    1346.827     -53.602
  P     -898.400    1347.031     -50.930
  C     -899.360    1345.419     -49.116
  O     -898.210    1345.977     -49.748
  C     -898.940    1344.392     -48.085
  O     -898.300    1343.252     -48.746
  C     -897.890    1344.891     -47.072
  O     -898.490    1345.673     -46.040
  C     -897.340    1343.588     -46.543
  O     -898.150    1343.039     -45.497
  C     -897.380    1342.673     -47.787
  N     -896.050    1342.504     -48.391
  C     -895.160    1341.674     -47.671
  O     -895.490    1341.110     -46.625
  N     -893.920    1341.539     -48.186
  C     -893.430    1342.168     -49.285
  O     -892.270    1342.054     -49.659
  C     -894.400    1343.047     -49.994
  C     -895.650    1343.166     -49.511
  O     -899.760    1347.786     -50.536
  O     -897.270    1347.991     -51.119
  H     -899.690    1348.735     -50.765
  H     -898.270    1343.747     -44.828
  H     -893.270    1340.942     -47.666
  H     -894.030    1343.563     -50.877
  H     -896.340    1343.823     -50.013
  H     -897.770    1341.676     -47.548
  H     -896.330    1343.714     -46.151
  H     -897.110    1345.435     -47.583
  H     -899.830    1344.014     -47.567
  H     -900.000    1344.946     -49.863
  H     -899.910    1346.246     -48.636
  P     -897.480    1346.418     -45.007
  C     -898.550    1345.265     -42.877
  O     -897.430    1345.424     -43.717
  O     -898.370    1347.641     -44.533
  O     -896.150    1346.736     -45.594
  H     -899.330    1347.445     -44.618
  H     -898.314    1344.575     -42.094
  H     -899.373    1344.889     -43.448
  H     -898.813    1346.211     -42.451

 6  7  8  9  10  11  12  13  14  15  16  27  31  32  33  34  35 0
 6-311+G(2d,p)
 ****
 36  37 0
 6-311+G(2d,p)
 ****
 1  2  3  4  5  17  18  19  20  21  22  23  24  25 0
 3-21G
 ****
 26  28  29  30  38  39  40  41  42  43  44  45 0
 3-21G
 ****


