%nproc=1
%NoSave
%Mem=1900MB
#P OB98/GEN NMR

erre ene a

0 1
  C       59.165     295.991      99.110
  O       60.243     295.523      98.320
  P       60.137     295.716      96.726
  C       58.670     294.682      94.851
  O       59.117     294.600      96.197
  C       57.254     294.111      94.698
  O       56.352     294.842      95.558
  C       56.704     294.177      93.272
  O       55.930     292.994      93.038
  C       55.770     295.374      93.305
  O       54.762     295.291      92.303
  C       55.249     295.298      94.753
  N       54.734     296.586      95.222
  C       53.347     296.756      95.211
  O       52.627     295.880      94.745
  N       52.826     297.939      95.669
  C       53.622     298.903      96.019
  N       53.047     300.054      96.478
  C       55.093     298.813      95.927
  C       55.576     297.626      95.542
  O       61.561     295.200      96.208
  O       59.853     297.121      96.290
  H       55.202     295.126      91.439
  H       61.838     295.683      95.409
  H       55.710     299.655      96.188
  H       56.645     297.454      95.468
  H       54.444     294.559      94.832
  H       56.343     296.297      93.149
  H       57.490     294.257      92.510
  H       57.274     293.071      95.051
  H       52.043     300.098      96.513
  H       59.338     294.108      94.210
  H       53.594     300.859      96.764
  H       58.698     295.729      94.521
  P       56.215     292.163      91.696
  C       55.837     292.616      89.197
  O       55.604     293.068      90.518
  O       55.130     290.994      91.816
  O       57.586     291.606      91.485
  H       55.231     290.371      91.064
  H       55.253     293.239      88.505
  H       55.529     291.580      89.085
  H       56.900     292.723      88.950
  H       59.369     295.798     100.142
  H       58.267     295.485      98.824
  H       59.044     297.044      98.961

 3  4  5  6  7  8  9  10  11  12  13  21  23  27  28  29  30  32 0
 6-311+G(2d,p)
 ****
 34  35 0
 6-311+G(2d,p)
 ****
 1  2  14  15  16  17  18  19  20  22  24  25  26 0
 3-21G
 ****
 31  33  36  37  38  39  40  41  42  43  44  45  46 0
 3-21G
 ****


