%nproc=1
%NoSave
%Mem=1900MB
#P OB98/GEN NMR

erre ene a

0 1
  C     -413.625     160.066     -90.989
  O     -414.881     159.414     -90.966
  H     -412.895     159.464     -91.551
  H     -413.732     161.036     -91.481
  H     -413.262     160.218     -89.960
  P     -414.900     157.922     -90.378
  C     -413.530     155.765     -90.826
  O     -413.855     157.076     -91.266
  C     -413.505     154.801     -91.997
  O     -412.524     155.219     -92.984
  C     -413.129     153.366     -91.653
  O     -414.219     152.657     -91.087
  C     -412.763     152.829     -93.019
  O     -413.955     152.473     -93.744
  C     -412.091     154.035     -93.693
  N     -407.824     153.378     -96.496
  C     -409.145     153.361     -96.823
  N     -410.220     153.529     -96.023
  C     -409.839     153.759     -94.762
  C     -408.546     153.787     -94.255
  C     -407.503     153.583     -95.194
  N     -406.167     153.578     -94.831
  N     -408.542     154.048     -92.908
  C     -409.810     154.174     -92.589
  N     -410.641     153.985     -93.672
  O     -416.331     157.360     -90.843
  O     -414.721     157.815     -88.901
  H     -414.464     151.856     -93.171
  H     -416.674     156.766     -90.154
  H     -409.350     153.189     -97.872
  H     -410.176     154.390     -91.588
  H     -412.420     154.157     -94.729
  H     -412.130     151.941     -92.987
  H     -412.241     153.344     -91.003
  H     -414.498     154.828     -92.494
  H     -414.279     155.418     -90.101
  H     -405.476     153.626     -95.566
  H     -405.929     153.751     -93.861
  H     -412.543     155.793     -90.334
  P     -413.878     151.534     -89.976
  C     -412.458     149.364     -89.982
  O     -412.802     150.562     -90.675
  O     -415.206     150.651     -89.933
  O     -413.512     152.073     -88.619
  H     -415.287     150.211     -89.067
  H     -411.739     148.815     -90.554
  H     -413.335     148.767     -89.845
  H     -412.042     149.611     -89.028

 6  7  8  9  10  11  12  13  14  15  25  28  32  33  34  35 0
 6-311+G(2d,p)
 ****
 36  39  40 0
 6-311+G(2d,p)
 ****
 1  2  3  4  5  16  17  18  19  20  21  22  23  24 0
 3-21G
 ****
 26  27  29  30  31  37  38  41  42  43  44  45  46  47  48 0
 3-21G
 ****


