%nproc=1
%NoSave
%Mem=1900MB
#P OB98/GEN NMR

erre ene a

0 1
  C      629.178     525.054     160.453
  O      628.692     526.343     160.139
  H      630.205     524.974     160.083
  H      628.566     524.292     159.957
  H      629.180     524.892     161.531
  P      627.236     526.769     160.662
  C      626.451     527.310     163.048
  O      627.448     527.528     162.056
  C      626.511     528.393     164.117
  O      627.827     528.394     164.722
  C      626.238     529.808     163.582
  O      625.493     530.530     164.558
  C      627.631     530.407     163.460
  O      627.616     531.832     163.554
  C      628.373     529.725     164.610
  N      632.781     531.906     165.773
  C      631.513     532.145     166.259
  N      631.383     533.137     167.172
  N      630.444     531.485     165.880
  C      630.723     530.518     164.972
  C      631.929     530.176     164.407
  C      633.103     530.930     164.830
  O      634.244     530.772     164.426
  N      631.796     529.151     163.503
  C      630.502     528.873     163.507
  N      629.807     529.682     164.376
  O      626.223     525.669     160.697
  O      626.792     527.943     159.664
  H      628.528     532.145     163.343
  H      626.185     527.607     158.982
  H      633.562     532.452     166.087
  H      630.030     528.114     162.913
  H      628.220     530.243     165.564
  H      628.073     530.131     162.492
  H      632.152     533.681     167.526
  H      625.706     529.805     162.625
  H      630.466     533.314     167.558
  H      625.792     528.140     164.913
  H      626.623     526.333     163.501
  H      625.463     527.307     162.569
  P      623.908     530.282     164.653
  C      622.358     528.364     165.416
  O      623.669     528.920     165.485
  O      623.158     530.393     163.373
  O      623.436     531.407     165.706
  H      622.514     531.660     165.496
  H      622.319     527.470     166.002
  H      622.121     528.134     164.398
  H      621.650     529.071     165.796

 6  7  8  9  10  11  12  13  14  15  26  29  33  34 0
 6-311+G(2d,p)
 ****
 36  38  39  40  41 0
 6-311+G(2d,p)
 ****
 1  2  3  4  5  16  17  18  19  20  21  22  23  24  25 0
 3-21G
 ****
 27  28  30  31  32  35  37  42  43  44  45  46  47 0
 3-21G
 ****
 48  49 0
 3-21G
 ****


