%nproc=1
%NoSave
%Mem=1900MB
#P OB98/GEN NMR

erre ene a

0 1
  C     -391.380     434.360    -136.226
  O     -390.240     434.825    -136.959
  P     -389.010     433.799    -137.101
  C     -387.517     434.599    -135.124
  O     -388.370     433.585    -135.642
  C     -387.410     434.475    -133.606
  O     -388.658     434.822    -132.952
  C     -387.089     433.059    -133.138
  O     -385.726     432.747    -133.366
  C     -387.486     433.148    -131.663
  O     -386.452     433.793    -130.897
  C     -388.734     434.050    -131.725
  N     -391.916     431.356    -128.763
  C     -390.740     431.969    -128.502
  N     -389.951     432.663    -129.345
  C     -390.492     432.709    -130.577
  C     -391.684     432.133    -130.991
  C     -392.412     431.422    -130.025
  N     -393.606     430.781    -130.293
  N     -391.910     432.389    -132.323
  C     -390.861     433.077    -132.718
  N     -389.979     433.315    -131.696
  O     -387.908     434.660    -137.880
  O     -389.355     432.546    -137.830
  H     -386.765     433.850    -129.970
  H     -387.814     434.330    -138.796
  H     -390.379     431.886    -127.478
  H     -390.691     433.439    -133.731
  H     -388.760     434.773    -130.897
  H     -387.663     432.168    -131.214
  H     -387.728     432.332    -133.657
  H     -386.635     435.172    -133.260
  H     -387.906     435.590    -135.390
  H     -394.019     430.230    -129.558
  H     -393.937     430.752    -131.248
  H     -386.536     434.511    -135.600
  P     -385.386     431.685    -134.516
  C     -384.358     429.906    -132.975
  O     -385.474     430.261    -133.773
  O     -383.815     431.896    -134.695
  O     -386.207     431.815    -135.758
  H     -383.351     431.933    -133.831
  H     -384.560     428.939    -132.498
  H     -384.184     430.661    -132.192
  H     -383.466     429.811    -133.598
  H     -392.126     435.127    -136.202
  H     -391.086     434.116    -135.226
  H     -391.780     433.489    -136.703

 3  4  5  6  7  8  9  10  11  12  22  25  29  30  31  32 0
 6-311+G(2d,p)
 ****
 33  36  37 0
 6-311+G(2d,p)
 ****
 1  2  13  14  15  16  17  18  19  20  21  23  24  26 0
 3-21G
 ****
 27  28  34  35  38  39  40  41  42  43  44  45  46  47  48 0
 3-21G
 ****


