%nproc=1
%NoSave
%Mem=1900MB
#P OB98/GEN NMR

erre ene a

0 1
  C     -360.125    -637.550     152.676
  O     -359.672    -638.875     152.964
  P     -360.355    -640.067     152.132
  C     -358.262    -641.596     152.252
  O     -359.644    -641.447     152.555
  C     -357.378    -641.179     153.432
  O     -357.658    -642.006     154.601
  C     -355.882    -641.293     153.158
  O     -355.216    -640.241     153.872
  C     -355.513    -642.619     153.783
  O     -354.108    -642.708     154.026
  C     -356.408    -642.582     155.018
  N     -356.403    -645.313     159.336
  C     -356.162    -644.011     159.093
  N     -356.158    -643.362     157.912
  C     -356.495    -644.206     156.909
  C     -356.756    -645.563     157.010
  C     -356.706    -646.115     158.295
  N     -356.923    -647.456     158.543
  N     -357.015    -646.102     155.761
  C     -356.896    -645.077     154.926
  N     -356.622    -643.912     155.586
  O     -359.824    -639.815     150.635
  O     -361.845    -640.074     152.184
  H     -353.950    -643.462     154.627
  H     -360.554    -639.479     150.079
  H     -355.926    -643.398     159.961
  H     -357.007    -645.131     153.865
  H     -355.988    -641.965     155.822
  H     -355.803    -643.446     153.114
  H     -355.609    -641.240     152.088
  H     -357.629    -640.138     153.703
  H     -358.001    -640.989     151.379
  H     -356.837    -647.787     159.487
  H     -357.098    -648.082     157.765
  H     -358.073    -642.638     151.962
  P     -354.437    -639.154     152.989
  C     -354.287    -637.333     154.847
  O     -353.586    -638.263     154.019
  O     -355.598    -638.154     152.494
  O     -353.670    -639.731     151.854
  H     -355.329    -637.723     151.664
  H     -353.840    -637.369     155.847
  H     -355.347    -637.576     154.924
  H     -354.159    -636.340     154.438
  H     -359.597    -636.851     153.291
  H     -361.174    -637.480     152.876
  H     -359.943    -637.327     151.646

 3  4  5  6  7  8  9  10  11  12  22  25  29  30  31  32 0
 6-311+G(2d,p)
 ****
 33  36  37 0
 6-311+G(2d,p)
 ****
 1  2  13  14  15  16  17  18  19  20  21  23  24  26 0
 3-21G
 ****
 27  28  34  35  38  39  40  41  42  43  44  45  46  47  48 0
 3-21G
 ****


