%nproc=1
%NoSave
%Mem=1900MB
#P OB98/GEN NMR

erre ene a

0 1
  C      345.485     -80.361     333.808
  O      346.136     -79.318     334.512
  H      345.918     -80.431     332.809
  H      344.418     -80.134     333.714
  H      345.622     -81.315     334.326
  P      345.770     -79.166     336.072
  C      343.520     -77.891     335.622
  O      344.173     -79.045     336.128
  C      342.001     -78.034     335.759
  O      341.384     -76.767     335.425
  C      341.401     -79.100     334.853
  O      340.330     -79.742     335.552
  C      340.841     -78.302     333.681
  O      339.794     -79.003     333.009
  C      340.424     -76.996     334.376
  N      340.372     -75.869     333.438
  C      339.156     -75.654     332.783
  O      338.202     -76.407     332.979
  N      339.062     -74.622     331.885
  C      340.108     -73.905     331.611
  N      339.960     -72.913     330.695
  C      341.427     -74.132     332.242
  C      341.480     -75.112     333.144
  O      346.281     -77.679     336.378
  O      346.367     -80.218     336.946
  H      340.187     -79.799     332.586
  H      346.076     -77.042     335.670
  H      342.277     -73.522     331.965
  H      342.406     -75.340     333.661
  H      339.438     -77.103     334.843
  H      341.637     -78.110     332.952
  H      342.116     -79.845     334.516
  H      341.767     -78.223     336.815
  H      339.044     -72.803     330.273
  H      343.776     -77.740     334.571
  H      340.716     -72.331     330.369
  H      343.874     -77.027     336.192
  P      340.459     -81.300     335.915
  C      338.251     -81.973     334.760
  O      339.658     -82.159     334.819
  O      340.169     -81.658     337.336
  O      341.988     -81.627     335.553
  H      342.337     -82.242     336.227
  H      337.840     -82.598     333.995
  H      338.036     -80.949     334.538
  H      337.817     -82.232     335.703

 6  7  8  9  10  11  12  13  14  15  16  26  30  31  32  33  35 0
 6-311+G(2d,p)
 ****
 37  38 0
 6-311+G(2d,p)
 ****
 1  2  3  4  5  17  18  19  20  21  22  23  24  25 0
 3-21G
 ****
 27  28  29  34  36  39  40  41  42  43  44  45  46 0
 3-21G
 ****


