%nproc=1
%NoSave
%Mem=1900MB
#P OB98/GEN NMR

erre ene a

0 1
  C        8.858      28.607      22.615
  O        9.721      29.740      22.747
  P        9.674      30.522      24.152
  C        8.462      32.506      22.981
  O        9.526      32.086      23.825
  C        8.550      34.005      22.705
  O        8.284      34.767      23.896
  C        9.918      34.473      22.232
  O       10.115      34.211      20.850
  C        9.822      35.971      22.488
  O        9.136      36.611      21.397
  C        8.974      36.034      23.768
  N       11.474      39.451      26.554
  C       10.785      39.610      25.368
  N       10.731      40.863      24.868
  N       10.200      38.630      24.731
  C       10.310      37.437      25.364
  C       10.966      37.153      26.538
  C       11.636      38.241      27.218
  O       12.287      38.150      28.252
  N       10.851      35.828      26.870
  C       10.102      35.316      25.914
  N        9.760      36.251      24.967
  O       11.179      30.398      24.682
  O        8.689      29.964      25.123
  H        9.153      37.572      21.574
  H       11.195      30.444      25.656
  H       11.912      40.239      26.998
  H        9.779      34.284      25.862
  H        8.210      36.816      23.712
  H       10.803      36.450      22.570
  H       11.096      41.674      25.342
  H       10.716      34.041      22.848
  H       10.199      41.004      24.017
  H        7.789      34.257      21.954
  H        7.504      32.280      23.454
  H        8.500      31.932      22.050
  P       10.825      32.826      20.461
  C       12.287      34.123      18.755
  O       11.405      33.042      18.984
  O        9.590      31.831      20.252
  O       11.789      32.318      21.479
  H        9.857      30.915      20.453
  H       13.021      34.213      19.560
  H       11.717      35.052      18.672
  H       12.818      33.950      17.815
  H        8.981      28.176      21.643
  H        7.842      28.916      22.742
  H        9.106      27.881      23.361

 3  4  5  6  7  8  9  10  11  12  23  26  30  31  33  0
 6-311+G(2d,p)
 ****
 35  36  37  38 0
 6-311+G(2d,p)
 ****
 1  2  13  14  15  16  17  18  19  20  21  22  24  25  27  28  29 0
 3-21G
 ****
 32  34  39  40  41  42  43  44  45  46  47  48  49 0
 3-21G
 ****


