%nproc=1
%NoSave
%Mem=1900MB
#P OB98/GEN NMR

erre ene a

0 1
  C       84.741     -20.781      63.969
  O       84.389     -22.000      64.584
  H       85.095     -20.991      62.957
  H       85.547     -20.301      64.530
  H       83.884     -20.107      63.906
  P       83.543     -21.963      65.942
  C       81.269     -22.713      64.980
  O       82.376     -23.054      65.802
  C       80.020     -23.500      65.397
  O       78.902     -23.076      64.576
  C       80.200     -25.004      65.162
  O       79.416     -25.784      66.060
  C       79.667     -25.189      63.751
  O       79.249     -26.527      63.481
  C       78.531     -24.169      63.720
  N       74.938     -23.079      60.273
  C       74.824     -23.764      61.467
  N       73.587     -24.214      61.784
  N       75.831     -24.005      62.264
  C       77.017     -23.559      61.786
  C       77.261     -22.888      60.609
  C       76.132     -22.597      59.751
  O       76.181     -22.014      58.673
  N       78.596     -22.606      60.461
  C       79.159     -23.108      61.541
  N       78.239     -23.674      62.388
  O       82.737     -20.582      65.847
  O       84.344     -22.046      67.206
  H       80.019     -27.107      63.626
  H       82.469     -20.284      66.734
  H       74.126     -22.895      59.712
  H       80.217     -23.073      61.764
  H       77.607     -24.607      64.118
  H       80.470     -24.953      63.048
  H       72.837     -24.222      61.110
  H       81.238     -25.319      65.232
  H       73.544     -24.969      62.474
  H       79.758     -23.267      66.434
  H       81.549     -22.953      63.952
  H       81.080     -21.640      65.023
  P       80.168     -26.731      67.110
  C       80.555     -25.250      69.268
  O       79.836     -26.261      68.598
  O       81.709     -26.353      66.925
  O       79.922     -28.194      66.908
  H       82.208     -27.117      66.581
  H       80.149     -25.113      70.248
  H       80.479     -24.335      68.719
  H       81.583     -25.535      69.345

 6  7  8  9  10  11  12  13  14  15  26  29  33  34 0
 6-311+G(2d,p)
 ****
 36  38  39  40  41 0
 6-311+G(2d,p)
 ****
 1  2  3  4  5  16  17  18  19  20  21  22  23  24  25 0
 3-21G
 ****
 27  28  30  31  32  35  37  42  43  44  45  46  47 0
 3-21G
 ****
 48  49 0
 3-21G
 ****


