%nproc=1
%NoSave
%Mem=1900MB
#P OB98/GEN NMR

erre ene a

0 1
  C       81.163    -489.099     263.686
  O       80.716    -487.764     263.821
  H       81.197    -489.572     264.671
  H       80.455    -489.645     263.058
  H       82.151    -489.134     263.221
  P       81.744    -486.706     264.445
  C       82.248    -485.830     262.054
  O       82.779    -486.330     263.273
  C       83.071    -484.643     261.560
  O       84.464    -485.049     261.475
  C       82.652    -484.110     260.179
  O       82.750    -482.682     260.195
  C       83.716    -484.671     259.253
  O       83.885    -483.889     258.075
  C       84.934    -484.673     260.168
  N       87.798    -485.845     256.134
  C       87.095    -484.737     256.449
  N       86.402    -484.485     257.577
  C       86.534    -485.491     258.453
  C       87.223    -486.682     258.280
  C       87.864    -486.850     257.039
  N       88.525    -488.003     256.681
  N       87.078    -487.492     259.388
  C       86.298    -486.814     260.208
  N       85.939    -485.598     259.686
  O       82.616    -487.617     265.437
  O       81.127    -485.544     265.154
  H       84.114    -482.978     258.332
  H       82.180    -487.659     266.306
  H       87.080    -483.952     255.692
  H       85.936    -487.163     261.165
  H       85.409    -483.682     260.243
  H       83.443    -485.689     258.958
  H       81.639    -484.407     259.881
  H       83.016    -483.844     262.314
  H       81.214    -485.501     262.221
  H       88.865    -488.077     255.733
  H       88.490    -488.800     257.300
  H       82.247    -486.629     261.304
  P       81.692    -481.877     261.092
  C       82.623    -482.188     263.504
  O       81.640    -482.553     262.545
  O       80.285    -482.274     260.447
  O       81.900    -480.398     261.090
  H       79.658    -481.537     260.520
  H       82.450    -482.724     264.414
  H       82.564    -481.136     263.692
  H       83.595    -482.429     263.128

 6  7  8  9  10  11  12  13  14  15  25  28  32  33  34  35 0
 6-311+G(2d,p)
 ****
 36  39  40 0
 6-311+G(2d,p)
 ****
 1  2  3  4  5  16  17  18  19  20  21  22  23  24 0
 3-21G
 ****
 26  27  29  30  31  37  38  41  42  43  44  45  46  47 0
 3-21G
 ****
 48 0
 3-21G
 ****


