%nproc=1
%NoSave
%Mem=1900MB
#P OB98/GEN NMR

erre ene a

0 1
  C      488.232     680.786    1636.517
  O      488.563     679.386    1636.483
  P      487.643     678.216    1637.060
  C      487.067     677.080    1634.748
  O      486.627     677.777    1635.905
  C      485.889     676.463    1633.985
  O      485.365     675.344    1634.792
  C      484.719     677.440    1633.786
  O      484.138     677.369    1632.488
  C      483.820     677.161    1634.964
  O      482.473     677.600    1634.794
  C      484.006     675.647    1635.156
  N      480.865     673.071    1638.285
  C      480.695     673.433    1636.953
  N      479.516     673.091    1636.378
  N      481.577     674.088    1636.267
  C      482.659     674.464    1636.964
  C      482.969     674.173    1638.288
  C      482.002     673.401    1639.029
  O      482.117     673.038    1640.194
  N      484.188     674.713    1638.647
  C      484.598     675.308    1637.565
  N      483.740     675.204    1636.512
  O      487.077     678.424    1638.428
  O      488.664     676.963    1637.138
  H      482.113     677.106    1634.021
  H      488.364     676.414    1637.890
  H      480.169     672.534    1638.751
  H      485.557     675.868    1637.486
  H      483.346     675.074    1634.513
  H      484.214     677.689    1635.837
  H      478.751     672.664    1636.894
  H      485.062     678.485    1633.836
  H      479.298     673.555    1635.488
  H      486.265     676.051    1633.030
  H      487.749     676.317    1635.095
  H      487.640     677.756    1634.107
  P      484.502     678.225    1631.168
  C      485.415     676.438    1629.534
  O      485.737     677.515    1630.442
  O      485.169     679.579    1631.735
  O      483.326     678.517    1630.271
  H      484.619     680.331    1631.437
  H      486.341     675.883    1629.318
  H      485.017     676.863    1628.620
  H      484.700     675.774    1630.010
  H      489.021     681.350    1636.064
  H      488.108     681.099    1637.533
  H      487.322     680.950    1635.979

 3  4  5  6  7  8  9  10  11  12  23  26  30  31 0
 6-311+G(2d,p)
 ****
 33  35  36  37  38 0
 6-311+G(2d,p)
 ****
 1  2  13  14  15  16  17  18  19  20  21  22  24  25 0
 3-21G
 ****
 27  28  29  32  34  39  40  41  42  43  44  45  46  47  48  49 0
 3-21G
 ****


