%nproc=1
%NoSave
%Mem=1900MB
#P OB98/GEN NMR

erre ene a

0 1
  C      118.731      74.205    -163.827
  O      119.203      72.921    -163.448
  P      119.047      71.726    -164.507
  C      117.071      70.499    -165.638
  O      117.474      71.555    -164.775
  C      115.562      70.520    -165.855
  O      115.176      71.830    -166.354
  C      115.053      69.475    -166.864
  O      113.861      68.864    -166.351
  C      114.660      70.310    -168.072
  O      113.666      69.670    -168.864
  C      114.196      71.594    -167.382
  N      111.201      73.941    -170.707
  C      110.906      72.930    -169.812
  N      109.646      72.439    -169.854
  N      111.764      72.441    -168.959
  C      112.976      73.049    -169.008
  C      113.386      74.064    -169.841
  C      112.443      74.555    -170.824
  O      112.669      75.385    -171.701
  N      114.684      74.429    -169.583
  C      115.059      73.634    -168.597
  N      114.072      72.745    -168.246
  O      119.431      70.435    -163.641
  O      119.904      71.837    -165.721
  H      112.958      69.383    -168.257
  H      120.161      69.952    -164.076
  H      110.505      74.268    -171.355
  H      116.037      73.644    -168.132
  H      113.221      71.436    -166.898
  H      115.547      70.484    -168.693
  H      108.924      72.795    -170.460
  H      115.785      68.701    -167.115
  H      109.404      71.714    -169.191
  H      115.067      70.391    -164.883
  H      117.355      69.541    -165.191
  H      117.591      70.609    -166.596
  P      114.008      67.346    -165.849
  C      114.523      65.086    -167.044
  O      114.315      66.480    -167.163
  O      112.508      66.936    -165.465
  O      114.960      67.174    -164.713
  H      112.511      66.213    -164.809
  H      114.284      64.718    -166.039
  H      115.569      64.864    -167.261
  H      113.888      64.570    -167.769
  H      118.899      74.897    -163.028
  H      117.683      74.152    -164.038
  H      119.254      74.534    -164.700

 3  4  5  6  7  8  9  10  11  12  23  26  30  31  33  0
 6-311+G(2d,p)
 ****
 35  36  37  38 0
 6-311+G(2d,p)
 ****
 1  2  13  14  15  16  17  18  19  20  21  22  24  25  27  28  29 0
 3-21G
 ****
 32  34  39  40  41  42  43  44  45  46  47  48  49 0
 3-21G
 ****


