%nproc=1
%NoSave
%Mem=1900MB
#P OB98/GEN NMR

erre ene a

0 1
  C      -56.411     -43.635       0.817
  O      -56.975     -44.525      -0.138
  P      -56.294     -44.597      -1.595
  C      -57.425     -42.528      -2.663
  O      -57.333     -43.939      -2.632
  C      -58.878     -42.073      -2.859
  O      -58.924     -40.618      -2.780
  C      -59.498     -42.476      -4.201
  O      -60.895     -42.706      -3.969
  C      -59.336     -41.228      -5.053
  O      -60.246     -41.201      -6.148
  C      -59.568     -40.145      -3.995
  N      -60.522     -35.721      -6.384
  C      -61.301     -36.793      -6.132
  N      -60.978     -37.943      -5.491
  C      -59.694     -37.911      -5.090
  C      -58.772     -36.899      -5.297
  C      -59.223     -35.756      -5.982
  N      -58.435     -34.657      -6.226
  N      -57.541     -37.243      -4.755
  C      -57.720     -38.438      -4.231
  N      -59.018     -38.862      -4.389
  O      -56.363     -46.162      -1.937
  O      -54.894     -44.087      -1.672
  H      -60.013     -41.933      -6.752
  H      -55.463     -46.540      -1.940
  H      -62.334     -36.728      -6.497
  H      -56.964     -39.024      -3.743
  H      -60.638     -40.004      -3.775
  H      -58.316     -41.179      -5.444
  H      -59.037     -43.359      -4.659
  H      -59.472     -42.456      -2.023
  H      -56.829     -42.154      -3.508
  H      -58.868     -33.828      -6.598
  H      -57.522     -34.595      -5.766
  H      -57.014     -42.102      -1.742
  P      -61.389     -44.232      -3.956
  C      -61.606     -44.270      -6.544
  O      -62.239     -44.460      -5.291
  O      -62.484     -44.256      -2.787
  O      -60.289     -45.226      -3.703
  H      -62.531     -45.148      -2.396
  H      -62.028     -44.964      -7.273
  H      -60.524     -44.437      -6.483
  H      -61.781     -43.241      -6.878
  H      -56.964     -43.695       1.731
  H      -56.452     -42.634       0.440
  H      -55.392     -43.906       0.999

 3  4  5  6  7  8  9  10  11  12  22  25  29  30  31  32 0
 6-311+G(2d,p)
 ****
 33  36  37 0
 6-311+G(2d,p)
 ****
 1  2  13  14  15  16  17  18  19  20  21  23  24  26 0
 3-21G
 ****
 27  28  34  35  38  39  40  41  42  43  44  45  46  47  48 0
 3-21G
 ****


