%nproc=1
%NoSave
%Mem=1900MB
#P OB98/GEN NMR

erre ene a

0 1
  C      -78.374     244.373     168.703
  O      -78.156     245.520     167.868
  P      -76.711     245.625     167.167
  C      -76.281     248.125     167.768
  O      -76.484     247.166     166.739
  C      -77.253     249.290     167.596
  O      -78.510     249.055     168.282
  C      -76.731     250.608     168.166
  O      -75.738     251.170     167.320
  C      -78.036     251.415     168.259
  O      -78.379     251.946     166.960
  C      -79.049     250.337     168.680
  N      -82.438     249.047     172.276
  C      -82.464     248.901     170.940
  N      -81.521     249.270     170.045
  C      -80.461     249.842     170.674
  C      -80.299     250.039     172.030
  C      -81.359     249.626     172.857
  N      -81.338     249.766     174.236
  N      -79.090     250.638     172.298
  C      -78.537     250.826     171.114
  N      -79.327     250.337     170.094
  O      -76.924     244.875     165.769
  O      -75.607     245.025     167.972
  H      -79.245     252.404     167.054
  H      -76.459     244.022     165.786
  H      -83.358     248.440     170.524
  H      -77.576     251.293     170.940
  H      -80.005     250.463     168.160
  H      -77.953     252.263     168.957
  H      -76.320     250.453     169.169
  H      -77.466     249.408     166.518
  H      -75.252     248.502     167.746
  H      -82.176     249.508     174.747
  H      -80.582     250.276     174.664
  H      -76.427     247.631     168.734
  P      -74.330     251.578     167.976
  C      -74.528     254.134     167.936
  O      -73.979     252.993     167.299
  O      -73.332     250.573     167.231
  O      -74.298     251.530     169.475
  H      -73.507     250.528     166.260
  H      -74.192     255.023     167.394
  H      -74.181     254.199     168.975
  H      -75.616     254.094     167.909
  H      -79.362     244.412     169.111
  H      -77.659     244.370     169.499
  H      -78.263     243.482     168.121

 3  4  5  6  7  8  9  10  11  12  22  25  29  30  31  32 0
 6-311+G(2d,p)
 ****
 33  36  37 0
 6-311+G(2d,p)
 ****
 1  2  13  14  15  16  17  18  19  20  21  23  24  26 0
 3-21G
 ****
 27  28  34  35  38  39  40  41  42  43  44  45  46  47  48 0
 3-21G
 ****


