%nproc=1
%NoSave
%Mem=1900MB
#P OB98/GEN NMR

erre ene a

0 1
  C      292.691     330.081      55.597
  O      293.263     329.400      54.498
  H      293.064     329.628      56.519
  H      291.600     329.991      55.577
  H      292.978     331.136      55.585
  P      292.842     329.849      53.019
  C      295.141     330.907      52.494
  O      293.747     331.128      52.665
  C      295.655     331.694      51.293
  O      297.089     331.585      51.200
  C      295.102     331.215      49.948
  O      293.811     331.758      49.720
  C      296.148     331.783      49.001
  O      295.931     333.197      48.833
  C      297.450     331.543      49.789
  N      300.620     329.041      46.716
  C      300.083     330.309      46.593
  N      300.410     330.993      45.475
  N      299.283     330.850      47.474
  C      298.987     330.022      48.505
  C      299.441     328.743      48.728
  C      300.379     328.182      47.775
  O      300.897     327.071      47.860
  N      298.848     328.182      49.829
  C      298.074     329.141      50.301
  N      298.115     330.278      49.527
  O      291.377     330.056      52.786
  O      293.446     328.706      52.073
  H      295.820     333.578      49.722
  H      292.791     327.999      51.912
  H      301.223     328.677      45.997
  H      297.468     329.070      51.198
  H      298.188     332.331      49.613
  H      296.111     331.330      48.010
  H      300.895     330.576      44.692
  H      295.110     330.124      49.875
  H      299.976     331.902      45.339
  H      295.425     332.752      51.458
  H      295.287     329.835      52.344
  H      295.689     331.211      53.393
  P      292.880     331.231      48.522
  C      290.948     330.526      50.087
  O      291.943     330.108      49.171
  O      293.620     330.799      47.301
  O      291.847     332.423      48.273
  H      292.199     333.119      47.663
  H      290.404     329.673      50.436
  H      290.277     331.203      49.601
  H      291.411     331.018      50.917

 6  7  8  9  10  11  12  13  14  15  26  29  33  34 0
 6-311+G(2d,p)
 ****
 36  38  39  40  41 0
 6-311+G(2d,p)
 ****
 1  2  3  4  5  16  17  18  19  20  21  22  23  24  25 0
 3-21G
 ****
 27  28  30  31  32  35  37  42  43  44  45  46  47 0
 3-21G
 ****
 48  49 0
 3-21G
 ****


