%nproc=1
%NoSave
%Mem=1900MB
#P OB98/GEN NMR

erre ene a

0 1
  C      -82.935      53.671     -31.016
  O      -82.106      54.551     -30.280
  H      -83.423      54.236     -31.815
  H      -83.706      53.241     -30.370
  H      -82.340      52.872     -31.466
  P      -81.279      53.956     -29.043
  C      -81.968      52.676     -26.907
  O      -82.367      53.589     -27.922
  C      -82.813      52.884     -25.655
  O      -82.607      54.207     -25.124
  C      -84.316      52.739     -25.891
  O      -84.687      51.369     -25.904
  C      -84.858      53.494     -24.689
  O      -84.746      52.675     -23.509
  C      -83.882      54.683     -24.606
  N      -86.124      59.226     -24.409
  C      -85.951      58.277     -23.417
  N      -86.490      58.567     -22.213
  N      -85.324      57.144     -23.597
  C      -84.901      56.963     -24.870
  C      -85.029      57.820     -25.940
  C      -85.674      59.097     -25.716
  O      -85.835      59.972     -26.562
  N      -84.531      57.266     -27.092
  C      -84.071      56.089     -26.710
  N      -84.284      55.852     -25.372
  O      -80.148      54.798     -28.533
  O      -80.781      52.527     -29.557
  H      -85.168      51.822     -23.721
  H      -79.894      52.585     -29.956
  H      -86.633      60.072     -24.211
  H      -83.574      55.376     -27.358
  H      -83.715      55.013     -23.574
  H      -85.906      53.774     -24.793
  H      -87.210      59.271     -22.105
  H      -84.638      53.258     -26.802
  H      -86.417      57.863     -21.489
  H      -82.466      52.174     -24.893
  H      -80.910      52.863     -26.691
  H      -82.078      51.645     -27.258
  P      -85.772      50.814     -26.951
  C      -88.193      51.512     -27.534
  O      -87.127      51.593     -26.595
  O      -85.899      49.328     -26.993
  O      -85.355      51.467     -28.348
  H      -84.700      50.927     -28.857
  H      -89.030      52.073     -27.173
  H      -88.478      50.489     -27.662
  H      -87.873      51.913     -28.473

 6  7  8  9  10  11  12  13  14  15  26  29  33  34 0
 6-311+G(2d,p)
 ****
 36  38  39  40  41 0
 6-311+G(2d,p)
 ****
 1  2  3  4  5  16  17  18  19  20  21  22  23  24  25 0
 3-21G
 ****
 27  28  30  31  32  35  37  42  43  44  45  46  47 0
 3-21G
 ****
 48  49 0
 3-21G
 ****


