%nproc=1
%NoSave
%Mem=1900MB
#P OB98/GEN NMR

erre ene a

0 1
  C      188.145     301.853    -351.529
  O      189.466     301.526    -351.142
  H      187.782     302.652    -350.882
  H      187.493     300.981    -351.408
  H      188.117     302.199    -352.568
  P      190.294     300.467    -352.024
  C      189.462     298.082    -351.477
  O      189.318     299.224    -352.312
  C      188.243     297.160    -351.591
  O      188.178     296.633    -352.942
  C      188.268     295.973    -350.621
  O      186.941     295.708    -350.156
  C      188.743     294.821    -351.488
  O      188.300     293.556    -350.998
  C      188.158     295.190    -352.853
  N      188.129     291.577    -356.391
  C      187.138     291.956    -355.487
  N      185.989     291.261    -355.524
  N      187.285     292.930    -354.629
  C      188.491     293.556    -354.720
  C      189.542     293.278    -355.556
  C      189.376     292.182    -356.494
  O      190.219     291.790    -357.290
  N      190.599     294.122    -355.335
  C      190.187     294.916    -354.357
  N      188.917     294.602    -353.941
  O      191.632     300.096    -351.465
  O      190.431     301.171    -353.458
  H      188.671     293.449    -350.102
  H      191.330     301.510    -353.591
  H      187.970     290.808    -357.017
  H      190.765     295.717    -353.917
  H      187.114     294.858    -352.970
  H      189.843     294.810    -351.521
  H      185.801     290.509    -356.185
  H      188.930     296.148    -349.768
  H      185.244     291.535    -354.910
  H      187.340     297.767    -351.445
  H      189.571     298.428    -350.439
  H      190.373     297.535    -351.755
  P      186.600     295.916    -348.603
  C      186.706     293.430    -347.943
  O      187.285     294.721    -347.764
  O      185.165     296.167    -348.279
  O      187.516     297.182    -348.197
  H      187.038     297.713    -347.530
  H      187.233     292.717    -347.345
  H      186.772     293.149    -348.973
  H      185.679     293.455    -347.645

 6  7  8  9  10  11  12  13  14  15  26  29  33  34 0
 6-311+G(2d,p)
 ****
 36  38  39  40  41 0
 6-311+G(2d,p)
 ****
 1  2  3  4  5  16  17  18  19  20  21  22  23  24  25 0
 3-21G
 ****
 27  28  30  31  32  35  37  42  43  44  45  46  47 0
 3-21G
 ****
 48  49 0
 3-21G
 ****


