%nproc=1
%NoSave
%Mem=1900MB
#P OB98/GEN NMR

erre ene a

0 1
  C      192.412    -319.285    1085.319
  O      193.503    -318.774    1084.583
  H      192.443    -318.934    1086.349
  H      191.481    -318.933    1084.861
  H      192.415    -320.377    1085.294
  P      194.965    -319.144    1085.120
  C      195.618    -320.491    1082.995
  O      195.389    -320.519    1084.403
  C      195.413    -321.884    1082.397
  O      194.131    -322.397    1082.876
  C      195.396    -321.925    1080.862
  O      196.411    -322.823    1080.391
  C      194.041    -322.515    1080.510
  O      194.083    -323.441    1079.432
  C      193.583    -323.175    1081.808
  N      189.414    -325.463    1079.970
  C      190.709    -325.849    1079.982
  N      191.763    -325.245    1080.589
  C      191.360    -324.139    1081.243
  C      190.075    -323.639    1081.334
  C      189.070    -324.340    1080.641
  N      187.767    -323.912    1080.561
  N      190.049    -322.471    1082.086
  C      191.309    -322.253    1082.408
  N      192.145    -323.236    1081.908
  O      194.702    -319.580    1086.640
  O      195.978    -318.052    1085.025
  H      194.762    -323.116    1078.813
  H      195.351    -319.139    1087.224
  H      190.935    -326.758    1079.449
  H      191.684    -321.397    1082.955
  H      193.980    -324.195    1081.902
  H      193.358    -321.692    1080.232
  H      195.528    -320.944    1080.409
  H      196.193    -322.548    1082.791
  H      196.655    -320.171    1082.789
  H      187.129    -324.414    1079.953
  H      187.520    -323.017    1080.976
  H      194.940    -319.763    1082.536
  P      197.643    -322.161    1079.604
  C      199.561    -322.483    1081.347
  O      198.658    -321.581    1080.699
  O      197.005    -320.833    1078.963
  O      198.248    -323.049    1078.560
  H      197.490    -320.574    1078.151
  H      200.166    -321.942    1082.045
  H      200.189    -322.947    1080.615
  H      199.003    -323.234    1081.866

 6  7  8  9  10  11  12  13  14  15  25  28  32  33  34  35 0
 6-311+G(2d,p)
 ****
 36  39  40 0
 6-311+G(2d,p)
 ****
 1  2  3  4  5  16  17  18  19  20  21  22  23  24 0
 3-21G
 ****
 26  27  29  30  31  37  38  41  42  43  44  45  46  47  48 0
 3-21G
 ****


