%nproc=1
%NoSave
%Mem=1900MB
#P OB98/GEN NMR

erre ene a

0 1
  C      123.486     -29.296    -233.272
  O      122.536     -28.325    -232.818
  P      122.527     -26.901    -233.555
  C      121.947     -25.313    -231.570
  O      121.514     -25.933    -232.780
  C      120.762     -25.138    -230.614
  O      120.567     -26.319    -229.815
  C      120.961     -24.005    -229.619
  O      120.725     -22.751    -230.231
  C      119.955     -24.362    -228.531
  O      118.670     -23.770    -228.783
  C      119.879     -25.906    -228.615
  N      120.425     -26.562    -227.441
  C      119.611     -26.549    -226.300
  O      118.515     -25.986    -226.325
  N      120.076     -27.153    -225.158
  C      121.250     -27.698    -225.146
  N      121.655     -28.277    -223.984
  C      122.153     -27.707    -226.321
  C      121.680     -27.123    -227.422
  O      121.768     -27.205    -234.932
  O      123.892     -26.333    -233.791
  H      118.796     -22.806    -228.668
  H      122.120     -26.639    -235.642
  H      123.129     -28.165    -226.260
  H      122.277     -27.084    -228.331
  H      118.834     -26.228    -228.729
  H      120.282     -24.000    -227.549
  H      121.979     -24.043    -229.208
  H      119.855     -24.961    -231.210
  H      121.014     -28.247    -223.199
  H      122.399     -24.341    -231.788
  H      122.558     -28.721    -223.862
  H      122.731     -25.931    -231.120
  P      121.936     -21.718    -230.319
  C      121.343     -19.503    -229.159
  O      121.251     -20.266    -230.346
  O      122.413     -21.889    -231.845
  O      123.067     -21.901    -229.360
  H      123.225     -21.372    -232.000
  H      121.027     -18.479    -229.375
  H      122.368     -19.488    -228.791
  H      120.677     -19.925    -228.397
  H      123.382     -30.192    -232.697
  H      124.476     -28.909    -233.153
  H      123.309     -29.512    -234.305

 3  4  5  6  7  8  9  10  11  12  13  21  23  27  28  29  30  32 0
 6-311+G(2d,p)
 ****
 34  35 0
 6-311+G(2d,p)
 ****
 1  2  14  15  16  17  18  19  20  22  24  25  26 0
 3-21G
 ****
 31  33  36  37  38  39  40  41  42  43  44  45  46 0
 3-21G
 ****


