%nproc=1
%NoSave
%Mem=1900MB
#P OB98/GEN NMR

erre ene a

0 1
  C     -181.641    -119.228    -141.486
  O     -181.781    -118.176    -140.529
  P     -180.591    -117.994    -139.467
  C     -180.531    -115.409    -139.319
  O     -180.838    -116.628    -138.660
  C     -181.671    -114.972    -140.246
  O     -182.911    -114.807    -139.501
  C     -181.405    -113.646    -140.964
  O     -182.023    -113.717    -142.255
  C     -182.160    -112.641    -140.118
  O     -182.418    -111.437    -140.836
  C     -183.389    -113.468    -139.745
  N     -186.594    -109.865    -138.074
  C     -186.101    -110.137    -139.300
  N     -185.229    -111.106    -139.660
  C     -184.905    -111.863    -138.597
  C     -185.320    -111.702    -137.286
  C     -186.207    -110.642    -137.034
  N     -186.690    -110.346    -135.782
  N     -184.732    -112.649    -136.471
  C     -183.973    -113.362    -137.278
  N     -184.068    -112.946    -138.575
  O     -179.327    -117.663    -140.391
  O     -180.347    -119.200    -138.622
  H     -181.557    -111.018    -141.048
  H     -178.722    -118.426    -140.413
  H     -186.446    -109.488    -140.101
  H     -183.336    -114.180    -136.976
  H     -184.127    -113.509    -140.555
  H     -181.573    -112.389    -139.226
  H     -180.346    -113.390    -141.074
  H     -181.836    -115.764    -140.987
  H     -179.616    -115.522    -139.908
  H     -187.299    -109.550    -135.681
  H     -186.373    -110.888    -134.992
  H     -180.312    -114.642    -138.569
  P     -181.039    -113.828    -143.515
  C     -182.435    -115.544    -144.870
  O     -181.958    -114.216    -144.768
  O     -180.204    -115.163    -143.227
  O     -180.152    -112.642    -143.703
  H     -179.341    -115.123    -143.677
  H     -183.470    -115.520    -145.222
  H     -182.400    -116.071    -143.912
  H     -181.825    -116.086    -145.597
  H     -182.496    -119.241    -142.130
  H     -181.564    -120.166    -140.977
  H     -180.758    -119.065    -142.068

 3  4  5  6  7  8  9  10  11  12  22  25  29  30  31  32 0
 6-311+G(2d,p)
 ****
 33  36  37 0
 6-311+G(2d,p)
 ****
 1  2  13  14  15  16  17  18  19  20  21  23  24  26 0
 3-21G
 ****
 27  28  34  35  38  39  40  41  42  43  44  45  46  47  48 0
 3-21G
 ****


