%nproc=1
%NoSave
%Mem=1900MB
#P OB98/GEN NMR

erre ene a

0 1
  C      416.058     -15.849     734.930
  O      414.660     -15.870     734.712
  H      416.549     -15.376     734.076
  H      416.269     -15.263     735.829
  H      416.443     -16.863     735.071
  P      414.095     -16.914     733.635
  C      411.940     -17.535     734.945
  O      412.494     -16.914     733.797
  C      410.447     -17.812     734.753
  O      409.786     -16.555     734.439
  C      410.138     -18.803     733.618
  O      409.043     -19.629     734.029
  C      409.669     -17.896     732.481
  O      408.808     -18.561     731.567
  C      408.989     -16.768     733.263
  N      406.943     -14.857     729.009
  C      406.673     -15.969     729.720
  N      407.230     -16.377     730.881
  C      408.122     -15.472     731.324
  C      408.500     -14.286     730.709
  C      407.882     -14.000     729.487
  N      408.213     -12.897     728.716
  N      409.484     -13.658     731.459
  C      409.705     -14.457     732.483
  N      408.908     -15.566     732.445
  O      414.534     -18.323     734.256
  O      414.597     -16.734     732.239
  H      409.236     -19.383     731.264
  H      415.432     -18.548     733.955
  H      405.907     -16.617     729.300
  H      410.446     -14.299     733.260
  H      407.967     -17.030     733.577
  H      410.541     -17.524     731.932
  H      410.986     -19.429     733.324
  H      410.028     -18.160     735.700
  H      412.073     -16.869     735.811
  H      407.792     -12.827     727.808
  H      408.975     -12.310     729.003
  H      412.476     -18.477     735.144
  P      409.365     -21.166     734.366
  C      408.771     -20.951     736.902
  O      408.508     -21.591     735.657
  O      410.864     -21.105     734.917
  O      409.230     -22.084     733.188
  H      411.341     -21.929     734.677
  H      408.118     -21.347     737.652
  H      408.605     -19.899     736.804
  H      409.788     -21.126     737.185

 6  7  8  9  10  11  12  13  14  15  25  28  32  33  34  35 0
 6-311+G(2d,p)
 ****
 36  39  40 0
 6-311+G(2d,p)
 ****
 1  2  3  4  5  16  17  18  19  20  21  22  23  24 0
 3-21G
 ****
 26  27  29  30  31  37  38  41  42  43  44  45  46  47 0
 3-21G
 ****
 48 0
 3-21G
 ****


