%nproc=1
%NoSave
%Mem=1900MB
#P OB98/GEN NMR

erre ene a

0 1
  C     -899.250    -898.276    -897.190
  O     -898.350    -898.786    -898.140
  H     -899.770    -899.106    -896.670
  H     -900.000    -897.636    -897.650
  H     -898.710    -897.686    -896.400
  P     -897.290    -897.786    -898.740
  C     -895.400    -898.266    -897.020
  O     -896.300    -897.306    -897.520
  C     -894.570    -897.666    -895.870
  O     -893.570    -896.746    -896.420
  C     -895.420    -896.856    -894.840
  O     -894.910    -897.106    -893.500
  C     -895.170    -895.426    -895.240
  O     -895.370    -894.506    -894.160
  C     -893.730    -895.496    -895.740
  N     -892.310    -890.656    -895.900
  C     -892.450    -891.516    -894.810
  N     -892.170    -890.996    -893.620
  N     -892.850    -892.746    -894.920
  C     -893.030    -893.136    -896.190
  C     -892.960    -892.396    -897.370
  C     -892.570    -891.016    -897.230
  O     -892.460    -890.156    -898.150
  N     -893.300    -893.136    -898.480
  C     -893.590    -894.306    -898.020
  N     -893.430    -894.406    -896.620
  O     -898.140    -896.456    -899.060
  O     -896.580    -898.226    -899.980
  H     -894.750    -894.726    -893.450
  H     -898.170    -896.256    -900.000
  H     -892.040    -889.676    -895.760
  H     -893.930    -895.186    -898.620
  H     -893.010    -895.466    -894.910
  H     -895.880    -895.116    -896.010
  H     -891.780    -890.056    -893.480
  H     -896.500    -897.166    -894.870
  H     -892.180    -891.646    -892.800
  H     -894.000    -898.476    -895.340
  H     -894.720    -898.596    -897.800
  H     -895.960    -899.166    -896.640
  P     -895.890    -896.876    -892.270
  C     -896.250    -899.216    -891.340
  O     -896.850    -898.126    -892.020
  O     -896.950    -895.716    -892.840
  O     -895.200    -896.326    -891.060
  H     -896.710    -894.846    -892.500
  H     -896.968    -900.000    -891.220
  H     -895.911    -898.893    -890.378
  H     -895.419    -899.577    -891.909

 6  7  8  9  10  11  12  13  14  15  26  29  33  34 0
 6-311+G(2d,p)
 ****
 36  38  39  40  41 0
 6-311+G(2d,p)
 ****
 1  2  3  4  5  16  17  18  19  20  21  22  23  24  25 0
 3-21G
 ****
 27  28  30  31  32  35  37  42  43  44  45  46  47 0
 3-21G
 ****
 48  49 0
 3-21G
 ****


