%nproc=1
%NoSave
%Mem=1900MB
#P OB98/GEN NMR

erre ene a

0 1
  C     -889.059     656.031     509.128
  O     -890.239     656.373     509.818
  H     -888.749     655.035     509.444
  H     -888.269     656.748     509.366
  H     -889.239     656.020     508.047
  P     -890.879     657.811     509.475
  C     -893.459     657.418     509.672
  O     -892.269     657.885     510.283
  C     -894.619     657.426     510.671
  O     -894.279     656.560     511.786
  C     -894.919     658.815     511.267
  O     -896.319     658.861     511.591
  C     -894.099     658.784     512.530
  O     -894.469     659.842     513.397
  C     -894.359     657.363     512.992
  N     -893.109     657.475     517.938
  C     -894.139     658.014     517.271
  N     -894.429     657.931     515.952
  C     -893.499     657.180     515.316
  C     -892.399     656.565     515.871
  C     -892.199     656.724     517.254
  N     -891.139     656.195     517.949
  N     -891.669     655.885     514.898
  C     -892.349     656.095     513.776
  N     -893.439     656.870     513.984
  O     -891.339     657.657     507.951
  O     -889.969     658.977     509.672
  H     -894.549     660.688     512.922
  H     -890.649     658.000     507.358
  H     -894.849     658.587     517.869
  H     -892.069     655.706     512.803
  H     -895.389     657.254     513.386
  H     -893.029     658.932     512.309
  H     -894.669     659.644     510.573
  H     -895.509     656.996     510.182
  H     -893.279     656.391     509.307
  H     -893.699     658.053     508.816
  H     -891.059     656.368     518.933
  H     -890.449     655.643     517.437
  P     -897.109     660.273     511.481
  C     -898.939     659.255     509.900
  O     -898.629     659.968     511.098
  O     -896.539     660.863     510.109
  O     -896.889     661.219     512.612
  H     -896.569     661.834     510.133
  H     -900.000     659.147     509.814
  H     -898.484     658.287     509.933
  H     -898.565     659.796     509.056

 6  7  8  9  10  11  12  13  14  15  25  28  32  33  34  35 0
 6-311+G(2d,p)
 ****
 36  37  40 0
 6-311+G(2d,p)
 ****
 1  2  3  4  5  16  17  18  19  20  21  22  23  24 0
 3-21G
 ****
 26  27  29  30  31  38  39 41  42  43  44  45  46  47  48 0
 3-21G
 ****


