%nproc=1
%NoSave
%Mem=1900MB
#P OB98/GEN NMR

erre ene a

0 1
  C      372.437    -231.903    -468.130
  O      373.203    -232.949    -468.720
  P      374.334    -233.660    -467.839
  C      373.558    -236.172    -468.131
  O      373.800    -235.062    -467.296
  C      373.013    -237.334    -467.287
  O      371.782    -236.948    -466.637
  C      372.711    -238.588    -468.104
  O      373.857    -239.408    -468.258
  C      371.608    -239.234    -467.293
  O      372.157    -239.909    -466.147
  C      370.791    -237.995    -466.852
  N      369.756    -237.482    -467.775
  C      368.494    -238.071    -467.793
  O      368.163    -239.022    -467.086
  N      367.587    -237.524    -468.660
  C      367.743    -236.369    -469.370
  O      366.874    -235.892    -470.088
  C      369.039    -235.703    -469.199
  C      369.969    -236.282    -468.435
  O      374.422    -232.751    -466.529
  O      375.661    -233.787    -468.522
  H      371.531    -240.607    -465.896
  H      375.296    -232.322    -466.467
  H      366.692    -237.980    -468.742
  H      369.190    -234.758    -469.706
  H      370.932    -235.795    -468.305
  H      370.295    -238.181    -465.891
  H      371.086    -239.993    -467.872
  H      372.299    -238.313    -469.078
  H      373.747    -237.566    -466.506
  H      374.469    -236.479    -468.645
  H      372.832    -235.897    -468.908
  P      374.721    -239.331    -469.602
  C      376.806    -238.504    -468.357
  O      375.831    -238.203    -469.338
  O      373.948    -239.189    -470.870
  O      375.586    -240.679    -469.570
  H      375.149    -241.384    -470.105
  H      377.584    -237.737    -468.385
  H      377.260    -239.480    -468.556
  H      376.345    -238.505    -467.364
  H      371.729    -231.534    -468.842
  H      373.089    -231.109    -467.831
  H      371.918    -232.280    -467.274

 3  4  5  6  7  8  9  10  11  12  13  23  28  29  30  31  32 0
 6-311+G(2d,p)
 ****
 33  34 0
 6-311+G(2d,p)
 ****
 1  2  14  15  16  17  18  19  20  21  22  24  25  26  27 0
 3-21G
 ****
 35  36  37  38  39  40  41  42  43  44  45 0
 3-21G
 ****


