%nproc=1
%NoSave
%Mem=1900MB
#P OB98/GEN NMR

erre ene a

0 1
  C     -117.741    -193.654      13.180
  O     -118.233    -193.094      14.398
  P     -117.209    -192.168      15.217
  C     -117.882    -192.442      17.708
  O     -117.959    -191.646      16.535
  C     -118.979    -192.052      18.701
  O     -118.776    -190.740      19.256
  C     -120.370    -192.032      18.084
  O     -120.880    -193.352      17.991
  C     -121.136    -191.163      19.072
  O     -121.603    -191.935      20.198
  C     -120.073    -190.148      19.523
  N     -122.670    -185.805      19.238
  C     -122.973    -186.975      19.907
  N     -124.118    -186.982      20.620
  N     -122.218    -188.044      19.878
  C     -121.103    -187.894      19.126
  C     -120.682    -186.778      18.442
  C     -121.528    -185.603      18.479
  O     -121.292    -184.538      17.923
  N     -119.464    -186.986      17.843
  C     -119.218    -188.264      18.062
  N     -120.148    -188.844      18.890
  O     -117.079    -190.862      14.301
  O     -115.882    -192.811      15.450
  H     -120.845    -192.388      20.609
  H     -116.190    -190.828      13.898
  H     -123.292    -185.016      19.287
  H     -118.372    -188.807      17.669
  H     -120.127    -189.965      20.603
  H     -122.023    -190.716      18.618
  H     -124.745    -186.195      20.688
  H     -120.341    -191.547      17.100
  H     -124.354    -187.827      21.124
  H     -118.949    -192.777      19.526
  H     -116.903    -192.322      18.176
  H     -117.968    -193.496      17.425
  P     -121.746    -193.731      16.697
  C     -123.827    -195.224      17.117
  O     -122.422    -195.155      16.973
  O     -120.630    -194.041      15.591
  O     -122.676    -192.657      16.237
  H     -120.882    -193.621      14.748
  H     -124.168    -196.205      16.779
  H     -124.333    -194.451      16.534
  H     -124.085    -195.105      18.173
  H     -118.506    -194.248      12.726
  H     -116.890    -194.268      13.388
  H     -117.458    -192.866      12.514

 3  4  5  6  7  8  9  10  11  12  23  26  30  31 0
 6-311+G(2d,p)
 ****
 33  35  36  37  38 0
 6-311+G(2d,p)
 ****
 1  2  13  14  15  16  17  18  19  20  21  22  24  25 0
 3-21G
 ****
 27  28  29  32  34  39  40  41  42  43  44  45  46  47  48  49 0
 3-21G
 ****


