%nproc=1
%NoSave
%Mem=1900MB
#P OB98/GEN NMR

erre ene a

0 1
  C     -350.745    -463.595     130.192
  O     -349.945    -464.608     130.767
  H     -350.088    -462.817     129.795
  H     -351.388    -463.150     130.956
  H     -351.353    -463.995     129.375
  P     -350.649    -465.944     131.305
  C     -350.604    -465.165     133.767
  O     -351.412    -465.566     132.669
  C     -351.471    -464.650     134.921
  O     -351.658    -463.217     134.755
  C     -352.857    -465.302     134.988
  O     -353.221    -465.482     136.356
  C     -353.764    -464.270     134.342
  O     -355.111    -464.373     134.799
  C     -353.082    -462.963     134.735
  N     -356.511    -459.458     133.486
  C     -356.471    -460.330     134.560
  N     -357.514    -460.270     135.425
  N     -355.503    -461.185     134.770
  C     -354.519    -461.117     133.840
  C     -354.439    -460.302     132.730
  C     -355.535    -459.379     132.503
  O     -355.627    -458.595     131.557
  N     -353.295    -460.543     132.014
  C     -352.680    -461.504     132.688
  N     -353.389    -461.891     133.799
  O     -349.749    -467.136     131.408
  O     -351.844    -466.201     130.278
  H     -355.100    -464.210     135.764
  H     -351.638    -466.937     129.674
  H     -357.285    -458.833     133.369
  H     -351.731    -461.948     132.419
  H     -353.386    -462.613     135.728
  H     -353.759    -464.406     133.255
  H     -358.278    -459.620     135.335
  H     -352.885    -466.263     134.473
  H     -357.490    -460.878     136.238
  H     -350.921    -464.792     135.860
  H     -349.931    -464.365     133.424
  H     -349.997    -466.014     134.101
  P     -352.938    -466.892     137.063
  C     -354.752    -468.297     135.899
  O     -353.356    -468.075     136.057
  O     -353.462    -467.035     138.453
  O     -351.329    -466.977     137.049
  H     -351.028    -467.440     137.857
  H     -354.910    -469.102     135.212
  H     -355.214    -467.409     135.520
  H     -355.183    -468.547     136.846

 6  7  8  9  10  11  12  13  14  15  26  29  33  34 0
 6-311+G(2d,p)
 ****
 36  38  39  40  41 0
 6-311+G(2d,p)
 ****
 1  2  3  4  5  16  17  18  19  20  21  22  23  24  25 0
 3-21G
 ****
 27  28  30  31  32  35  37  42  43  44  45  46  47 0
 3-21G
 ****
 48  49 0
 3-21G
 ****


