%nproc=1
%NoSave
%Mem=1900MB
#P OB98/GEN NMR

erre ene a

0 1
  C      -61.602     171.934     -85.016
  O      -61.484     171.376     -86.330
  P      -60.547     170.084     -86.510
  C      -58.356     171.282     -87.229
  O      -59.020     170.512     -86.235
  C      -56.830     171.153     -87.104
  O      -56.171     171.661     -88.307
  C      -56.245     171.935     -85.921
  O      -55.074     171.247     -85.467
  C      -55.825     173.245     -86.556
  O      -54.880     173.945     -85.751
  C      -55.297     172.743     -87.903
  N      -52.482     176.395     -89.963
  C      -52.205     175.536     -88.908
  N      -50.980     175.653     -88.343
  N      -53.048     174.651     -88.449
  C      -54.224     174.625     -89.141
  C      -54.617     175.428     -90.182
  C      -53.684     176.418     -90.665
  O      -53.879     177.210     -91.586
  N      -55.890     175.113     -90.601
  C      -56.268     174.132     -89.795
  N      -55.273     173.779     -88.910
  O      -60.588     169.830     -88.093
  O      -61.024     168.885     -85.757
  H      -54.055     173.409     -85.729
  H      -61.117     169.035     -88.286
  H      -51.796     177.066     -90.265
  H      -57.227     173.651     -89.810
  H      -54.279     172.345     -87.832
  H      -56.705     173.890     -86.697
  H      -50.269     176.280     -88.682
  H      -56.933     172.069     -85.077
  H      -50.735     175.010     -87.600
  H      -56.573     170.096     -87.015
  H      -58.645     172.334     -87.147
  H      -58.706     170.957     -88.218
  P      -55.134     170.591     -84.003
  C      -54.713     172.853     -82.792
  O      -55.592     171.760     -83.004
  O      -53.593     170.359     -83.630
  O      -55.929     169.329     -83.920
  H      -53.509     169.640     -82.978
  H      -55.075     173.720     -83.360
  H      -53.687     172.621     -83.100
  H      -54.714     173.100     -81.727
  H      -62.252     172.783     -85.046
  H      -60.636     172.237     -84.669
  H      -62.006     171.199     -84.351

 3  4  5  6  7  8  9  10  11  12  23  26  30  31 0
 6-311+G(2d,p)
 ****
 33  35  36  37  38 0
 6-311+G(2d,p)
 ****
 1  2  13  14  15  16  17  18  19  20  21  22  24  25 0
 3-21G
 ****
 27  28  29  32  34  39  40  41  42  43  44  45  46  47  48  49 0
 3-21G
 ****


