%nproc=1
%NoSave
%Mem=1900MB
#P OB98/GEN NMR

erre ene a

0 1
  C       54.300      35.877     168.663
  O       53.816      37.193     168.819
  H       54.120      35.557     167.633
  H       53.765      35.203     169.336
  H       55.374      35.824     168.860
  P       54.208      38.012     170.139
  C       53.530      40.324     171.059
  O       53.148      39.213     170.262
  C       52.778      41.587     170.628
  O       53.306      42.032     169.345
  C       51.264      41.384     170.458
  O       50.627      42.629     170.778
  C       51.157      41.103     168.972
  O       49.836      41.275     168.507
  C       52.200      42.077     168.421
  N       52.609      41.747     167.058
  C       52.180      42.605     166.053
  O       51.463      43.586     166.265
  N       52.561      42.283     164.779
  C       53.262      41.170     164.417
  O       53.549      40.912     163.254
  C       53.652      40.272     165.515
  C       53.317      40.597     166.766
  O       55.637      38.429     170.242
  O       53.780      37.047     171.344
  H       49.560      42.210     168.612
  H       54.364      37.193     172.114
  H       52.265      42.903     164.041
  H       54.202      39.376     165.259
  H       53.589      39.957     167.597
  H       51.809      43.105     168.415
  H       51.446      40.070     168.754
  H       50.865      40.580     171.079
  H       52.990      42.384     171.352
  H       54.607      40.474     170.936
  H       53.319      40.108     172.112
  P       49.876      42.868     172.175
  C       50.335      44.404     174.194
  O       50.335      44.286     172.772
  O       49.995      41.732     173.140
  O       48.344      43.114     171.776
  H       47.765      42.834     172.511
  H       50.657      45.386     174.470
  H       51.002      43.679     174.612
  H       49.346      44.235     174.566

 6  7  8  9  10  11  12  13  14  15  16  26  31  32  33  34  35 0
 6-311+G(2d,p)
 ****
 36  37 0
 6-311+G(2d,p)
 ****
 1  2  3  4  5  17  18  19  20  21  22  23  24  25 0
 3-21G
 ****
 27  28  29  30  38  39  40  41  42  43  44  45 0
 3-21G
 ****


