%nproc=1
%NoSave
%Mem=1900MB
#P OB98/GEN NMR

erre ene a

0 1
  C     -313.596    -612.809     480.869
  O     -313.001    -611.595     481.342
  P     -311.724    -611.571     482.309
  C     -312.438    -609.991     484.217
  O     -312.194    -611.344     483.828
  C     -312.635    -609.875     485.734
  O     -313.896    -610.451     486.130
  C     -311.590    -610.597     486.579
  O     -310.362    -609.867     486.612
  C     -312.296    -610.695     487.920
  O     -312.172    -609.475     488.664
  C     -313.762    -610.936     487.485
  N     -314.166    -612.328     487.602
  C     -314.627    -612.740     488.857
  O     -314.629    -611.961     489.802
  N     -315.050    -614.040     489.000
  C     -314.952    -614.870     488.009
  N     -315.399    -616.147     488.216
  C     -314.386    -614.502     486.695
  C     -314.014    -613.228     486.568
  O     -310.642    -610.642     481.868
  O     -311.183    -613.089     482.315
  H     -312.607    -609.636     489.532
  H     -310.207    -613.086     482.442
  H     -314.290    -615.229     485.903
  H     -313.589    -612.861     485.633
  H     -314.446    -610.311     488.083
  H     -311.902    -611.500     488.557
  H     -311.413    -611.602     486.176
  H     -312.663    -608.805     485.983
  H     -315.786    -616.365     489.118
  H     -313.343    -609.643     483.715
  H     -315.364    -616.870     487.501
  H     -311.586    -609.379     483.898
  P     -309.031    -610.529     486.014
  C     -307.656    -610.936     488.155
  O     -308.446    -611.531     487.127
  O     -308.047    -609.565     485.430
  O     -309.573    -611.539     484.895
  H     -308.917    -611.604     484.176
  H     -307.682    -611.605     489.022
  H     -308.069    -609.962     488.447
  H     -306.642    -610.813     487.794
  H     -314.431    -612.576     480.241
  H     -313.928    -613.392     481.703
  H     -312.874    -613.366     480.310

 3  4  5  6  7  8  9  10  11  12  13  23  27  28  29  30  32 0
 6-311+G(2d,p)
 ****
 34  35 0
 6-311+G(2d,p)
 ****
 1  2  14  15  16  17  18  19  20  21  22  24  25  26 0
 3-21G
 ****
 31  33  36  37  38  39  40  41  42  43  44  45  46 0
 3-21G
 ****


