%nproc=1
%NoSave
%Mem=1900MB
#P OB98/GEN NMR

erre ene a

0 1
  C      218.262    -150.184      28.134
  O      217.957    -150.086      26.753
  P      217.402    -151.347      25.945
  C      215.056    -150.562      25.066
  O      215.808    -151.315      25.992
  C      214.125    -149.616      25.835
  O      214.892    -148.585      26.490
  C      213.120    -148.940      24.905
  O      211.898    -149.660      24.880
  C      212.993    -147.554      25.508
  O      212.082    -147.570      26.622
  C      214.437    -147.295      26.000
  N      215.428    -146.803      25.023
  C      215.951    -145.520      25.160
  O      215.662    -144.760      26.078
  N      216.818    -145.123      24.173
  C      217.231    -145.887      23.119
  O      217.802    -145.449      22.128
  C      216.859    -147.304      23.182
  C      215.972    -147.685      24.100
  O      217.776    -152.578      26.896
  O      217.950    -151.519      24.566
  H      212.517    -148.062      27.341
  H      218.592    -153.015      26.590
  H      217.093    -144.147      24.189
  H      217.277    -147.977      22.446
  H      215.653    -148.724      24.142
  H      214.444    -146.597      26.844
  H      212.581    -146.848      24.789
  H      213.541    -148.846      23.895
  H      213.600    -150.190      26.610
  H      214.476    -151.231      24.422
  H      215.726    -149.988      24.417
  P      211.509    -150.512      23.583
  C      210.410    -152.341      25.001
  O      211.439    -152.035      24.084
  O      212.356    -150.272      22.377
  O      209.979    -150.112      23.325
  H      209.929    -149.418      22.636
  H      210.358    -153.427      25.121
  H      209.445    -151.977      24.633
  H      210.631    -151.889      25.971
  H      218.617    -149.239      28.489
  H      219.018    -150.927      28.280
  H      217.381    -150.460      28.675

 3  4  5  6  7  8  9  10  11  12  13  23  28  29  30  31  32 0
 6-311+G(2d,p)
 ****
 33  34 0
 6-311+G(2d,p)
 ****
 1  2  14  15  16  17  18  19  20  21  22  24  25  26  27 0
 3-21G
 ****
 35  36  37  38  39  40  41  42  43  44  45 0
 3-21G
 ****


