%nproc=1
%NoSave
%Mem=1900MB
#P OB98/GEN NMR

erre ene a

0 1
  C      222.018     330.917    1166.469
  O      222.487     330.376    1167.700
  P      222.619     331.278    1169.009
  C      222.409     329.353    1170.714
  O      223.276     330.312    1170.116
  C      223.228     328.274    1171.422
  O      223.978     327.548    1170.421
  C      224.267     328.769    1172.435
  O      223.752     329.026    1173.721
  C      225.193     327.561    1172.500
  O      224.620     326.539    1173.345
  C      225.226     327.097    1171.041
  N      230.274     326.790    1170.245
  C      229.444     326.082    1171.037
  N      228.113     326.228    1171.203
  C      227.641     327.225    1170.415
  C      228.386     328.040    1169.568
  C      229.769     327.783    1169.502
  N      230.626     328.508    1168.680
  N      227.562     328.952    1168.924
  C      226.349     328.699    1169.399
  N      226.339     327.652    1170.289
  O      221.352     331.965    1169.421
  O      223.799     332.303    1168.676
  H      225.361     325.969    1173.608
  H      223.783     333.055    1169.292
  H      229.895     325.274    1171.620
  H      225.458     329.232    1169.114
  H      225.267     326.008    1170.944
  H      226.187     327.817    1172.906
  H      224.814     329.637    1172.028
  H      222.541     327.566    1171.896
  H      221.812     328.901    1169.929
  H      231.571     328.188    1168.594
  H      230.206     329.137    1167.989
  H      221.721     329.863    1171.424
  P      224.228     330.397    1174.449
  C      222.042     330.582    1175.884
  O      223.433     330.426    1175.862
  O      224.104     331.616    1173.607
  O      225.733     330.061    1174.877
  H      225.834     329.363    1175.567
  H      221.681     330.436    1176.911
  H      221.555     329.852    1175.234
  H      221.751     331.600    1175.564
  H      222.006     330.149    1165.724
  H      222.668     331.708    1166.156
  H      221.028     331.301    1166.602

 3  4  5  6  7  8  9  10  11  12  22  25  29  30  31  32 0
 6-311+G(2d,p)
 ****
 33  36  37 0
 6-311+G(2d,p)
 ****
 1  2  13  14  15  16  17  18  19  20  21  23  24  26 0
 3-21G
 ****
 27  28  34  35  38  39  40  41  42  43  44  45  46  47  48 0
 3-21G
 ****


