%nproc=1
%NoSave
%Mem=1900MB
#P OB98/GEN NMR

erre ene a

0 1
  C       -5.309      37.996     223.841
  O       -6.163      37.130     224.551
  H       -5.512      37.892     222.770
  H       -4.260      37.741     224.021
  H       -5.493      39.038     224.124
  P       -6.022      37.049     226.147
  C       -8.455      37.748     226.658
  O       -7.076      38.091     226.760
  C       -9.331      38.964     226.983
  O       -9.038      39.367     228.346
  C       -9.049      40.156     226.058
  O      -10.232      40.670     225.442
  C       -8.233      41.091     226.935
  O       -8.315      42.455     226.570
  C       -8.727      40.772     228.351
  N       -7.764      41.084     229.399
  C       -7.839      42.345     229.984
  O       -8.663      43.215     229.693
  N       -6.915      42.606     230.963
  C       -5.934      41.748     231.388
  O       -5.129      42.041     232.270
  C       -5.888      40.444     230.714
  C       -6.796      40.171     229.763
  O       -4.634      37.182     226.677
  O       -6.662      35.627     226.519
  H       -7.963      42.979     227.320
  H       -5.945      34.995     226.740
  H       -6.970      43.503     231.402
  H       -5.121      39.746     231.019
  H       -6.789      39.218     229.248
  H       -9.645      41.326     228.568
  H       -7.172      40.809     226.854
  H       -8.440      39.844     225.199
  H      -10.386      38.659     226.941
  H       -8.654      36.934     227.367
  H       -8.673      37.399     225.641
  P      -10.493      40.736     223.868
  C      -12.961      39.823     223.819
  O      -11.587      39.633     223.493
  O       -9.274      40.796     223.002
  O      -11.294      42.120     223.672
  H      -11.042      42.466     222.793
  H      -13.527      38.978     223.486
  H      -13.323      40.707     223.337
  H      -13.065      39.927     224.879

 6  7  8  9  10  11  12  13  14  15  16  26  31  32  33  34  35 0
 6-311+G(2d,p)
 ****
 36  37 0
 6-311+G(2d,p)
 ****
 1  2  3  4  5  17  18  19  20  21  22  23  24  25 0
 3-21G
 ****
 27  28  29  30  38  39  40  41  42  43  44  45 0
 3-21G
 ****


