%nproc=1
%NoSave
%Mem=1900MB
#P OB98/GEN NMR

erre ene a

0 1
  C      150.207      18.473    -232.478
  O      151.510      18.795    -231.980
  P      152.749      18.508    -232.966
  C      153.696      20.677    -234.051
  O      153.697      19.803    -232.930
  C      155.111      21.163    -234.359
  O      155.171      21.790    -235.653
  C      155.636      22.208    -233.387
  O      156.105      21.619    -232.183
  C      156.792      22.798    -234.184
  O      157.957      21.964    -234.046
  C      156.261      22.745    -235.626
  N      157.275      26.819    -238.464
  C      158.044      25.700    -238.214
  N      159.246      25.648    -238.831
  N      157.673      24.722    -237.432
  C      156.436      24.895    -236.908
  C      155.578      25.956    -237.079
  C      156.016      27.049    -237.922
  O      155.386      28.076    -238.151
  N      154.407      25.771    -236.393
  C      154.541      24.586    -235.831
  N      155.763      24.022    -236.102
  O      152.078      18.584    -234.417
  O      153.423      17.200    -232.726
  H      158.639      22.325    -234.648
  H      152.583      18.037    -235.048
  H      157.614      27.547    -239.069
  H      153.789      24.096    -235.226
  H      157.022      22.389    -236.328
  H      157.077      23.798    -233.843
  H      159.564      26.331    -239.500
  H      154.883      22.984    -233.198
  H      159.809      24.819    -238.687
  H      155.776      20.289    -234.363
  H      153.051      21.536    -233.850
  H      153.266      20.150    -234.910
  P      155.345      22.015    -230.826
  C      154.833      19.521    -230.331
  O      155.439      20.720    -229.890
  O      153.808      22.062    -231.274
  O      155.792      23.301    -230.219
  H      153.315      22.692    -230.717
  H      155.031      19.342    -231.391
  H      153.753      19.570    -230.162
  H      155.241      18.686    -229.753
  H      149.473      18.708    -231.735
  H      150.161      17.429    -232.708
  H      150.013      19.042    -233.363

 3  4  5  6  7  8  9  10  11  12  23  26  30  31  33  0
 6-311+G(2d,p)
 ****
 35  36  37  38 0
 6-311+G(2d,p)
 ****
 1  2  13  14  15  16  17  18  19  20  21  22  24  25  27  28  29 0
 3-21G
 ****
 32  34  39  40  41  42  43  44  45  46  47  48  49 0
 3-21G
 ****


