%nproc=1
%NoSave
%Mem=1900MB
#P OB98/GEN NMR

erre ene a

0 1
  C     -820.652     547.176    -479.968
  O     -821.463     548.243    -479.513
  P     -822.395     547.966    -478.232
  C     -824.136     549.657    -479.159
  O     -823.346     549.245    -478.062
  C     -824.831     550.984    -478.855
  O     -825.819     550.794    -477.824
  C     -823.901     552.070    -478.325
  O     -823.121     552.635    -479.361
  C     -824.916     553.022    -477.694
  O     -825.537     553.826    -478.710
  C     -825.943     552.039    -477.090
  N     -825.992     554.098    -472.404
  C     -826.232     554.621    -473.621
  N     -826.183     554.017    -474.827
  C     -825.835     552.731    -474.693
  C     -825.535     552.053    -473.516
  C     -825.625     552.791    -472.328
  N     -825.373     552.250    -471.086
  N     -825.206     550.739    -473.782
  C     -825.316     550.625    -475.082
  N     -825.709     551.789    -475.676
  O     -821.377     548.091    -477.005
  O     -823.101     546.639    -478.238
  H     -825.995     553.217    -479.325
  H     -821.620     547.474    -476.284
  H     -826.512     555.680    -473.629
  H     -825.126     549.715    -475.643
  H     -826.972     552.397    -477.198
  H     -824.467     553.706    -476.965
  H     -823.240     551.662    -477.542
  H     -825.332     551.330    -479.760
  H     -824.908     548.903    -479.374
  H     -825.315     552.884    -470.307
  H     -824.971     551.319    -471.047
  H     -823.500     549.746    -480.052
  P     -821.533     552.587    -479.205
  C     -821.663     555.087    -479.781
  O     -821.020     553.855    -480.057
  O     -821.141     551.351    -480.150
  O     -821.039     552.505    -477.798
  H     -821.569     551.421    -481.023
  H     -821.190     555.870    -480.383
  H     -821.561     555.342    -478.719
  H     -822.716     555.021    -480.057
  H     -820.088     547.495    -480.820
  H     -821.272     546.348    -480.241
  H     -819.983     546.879    -479.188

 3  4  5  6  7  8  9  10  11  12  22  25  29  30  31  32 0
 6-311+G(2d,p)
 ****
 33  36  37 0
 6-311+G(2d,p)
 ****
 1  2  13  14  15  16  17  18  19  20  21  23  24  26 0
 3-21G
 ****
 27  28  34  35  38  39  40  41  42  43  44  45  46  47  48 0
 3-21G
 ****


