%nproc=1
%NoSave
%Mem=1900MB
#P OB98/GEN NMR

erre ene a

0 1
  C      551.532      69.036     511.592
  O      550.958      70.243     511.128
  H      551.904      68.472     510.733
  H      550.784      68.437     512.115
  H      552.369      69.257     512.262
  P      550.250      71.171     512.234
  C      547.989      69.910     512.534
  O      549.297      70.148     513.029
  C      547.027      69.657     513.700
  O      547.560      68.654     514.591
  C      546.768      70.879     514.581
  O      545.866      71.804     514.005
  C      546.187      70.199     515.802
  O      544.833      69.783     515.525
  C      547.127      68.978     515.936
  N      548.281      69.245     516.801
  C      548.013      69.424     518.161
  O      546.865      69.370     518.594
  N      549.060      69.703     519.010
  C      550.271      69.774     518.546
  N      551.265      70.055     519.427
  C      550.598      69.573     517.121
  C      549.570      69.317     516.318
  O      549.205      72.031     511.381
  O      551.162      71.977     513.094
  H      544.506      69.339     516.332
  H      548.607      72.536     511.987
  H      551.617      69.656     516.778
  H      549.733      69.158     515.258
  H      546.591      68.109     516.331
  H      546.146      70.843     516.678
  H      547.704      71.375     514.864
  H      546.093      69.262     513.281
  H      551.001      70.246     520.390
  H      548.021      69.029     511.881
  H      552.210      70.278     519.143
  H      547.636      70.772     511.959
  P      546.444      73.248     513.608
  C      546.342      74.267     516.002
  O      547.154      73.843     514.910
  O      545.123      74.145     513.466
  O      547.273      73.269     512.361
  H      545.231      74.813     512.762
  H      546.966      74.637     516.788
  H      545.768      73.439     516.362
  H      545.682      75.044     515.675

 6  7  8  9  10  11  12  13  14  15  16  26  30  31  32  33  35 0
 6-311+G(2d,p)
 ****
 37  38 0
 6-311+G(2d,p)
 ****
 1  2  3  4  5  17  18  19  20  21  22  23  24  25 0
 3-21G
 ****
 27  28  29  34  36  39  40  41  42  43  44  45  46 0
 3-21G
 ****


