%nproc=1
%NoSave
%Mem=1900MB
#P OB98/GEN NMR

erre ene a

0 1
  C     -494.683    -753.296    2585.398
  O     -495.921    -753.264    2584.694
  H     -493.921    -753.736    2584.752
  H     -494.788    -753.916    2586.287
  H     -494.377    -752.281    2585.688
  P     -497.161    -752.580    2585.448
  C     -498.013    -750.699    2583.867
  O     -497.173    -751.044    2584.957
  C     -497.199    -750.425    2582.607
  O     -496.545    -751.651    2582.167
  C     -498.001    -749.880    2581.409
  O     -497.175    -748.926    2580.703
  C     -498.185    -751.104    2580.542
  O     -498.453    -750.784    2579.172
  C     -496.833    -751.807    2580.755
  N     -494.678    -755.170    2577.710
  C     -494.390    -753.865    2577.932
  N     -493.352    -753.348    2577.222
  N     -495.033    -753.064    2578.773
  C     -496.028    -753.755    2579.424
  C     -496.419    -755.031    2579.321
  C     -495.709    -755.890    2578.321
  O     -495.943    -757.057    2578.100
  N     -497.475    -755.324    2580.120
  C     -497.731    -754.195    2580.770
  N     -496.858    -753.190    2580.351
  O     -496.651    -752.496    2586.971
  O     -498.450    -753.303    2585.324
  H     -498.337    -751.581    2578.638
  H     -496.949    -753.271    2587.464
  H     -494.140    -755.742    2577.055
  H     -498.501    -754.042    2581.486
  H     -496.024    -751.310    2580.178
  H     -499.027    -751.717    2580.911
  H     -492.781    -753.866    2576.609
  H     -498.934    -749.401    2581.681
  H     -493.097    -752.390    2577.410
  H     -496.380    -749.710    2582.878
  H     -498.604    -749.797    2584.116
  H     -498.744    -751.533    2583.662
  P     -497.424    -747.370    2580.970
  C     -495.171    -746.078    2580.515
  O     -496.053    -746.703    2581.464
  O     -498.318    -747.357    2582.306
  O     -498.082    -746.669    2579.817
  H     -498.918    -746.565    2582.325
  H     -494.314    -745.692    2581.026
  H     -495.684    -745.278    2580.024
  H     -494.859    -746.800    2579.789

 6  7  8  9  10  11  12  13  14  15  26  29  33  34 0
 6-311+G(2d,p)
 ****
 36  38  39  40  41 0
 6-311+G(2d,p)
 ****
 1  2  3  4  5  16  17  18  19  20  21  22  23  24  25 0
 3-21G
 ****
 27  28  30  31  32  35  37  42  43  44  45  46  47 0
 3-21G
 ****
 48  49 0
 3-21G
 ****


