%nproc=1
%NoSave
%Mem=1900MB
#P OB98/GEN NMR

erre ene a

0 1
  C     -414.253     520.482     874.278
  O     -412.920     519.982     874.136
  P     -411.871     520.172     875.325
  C     -409.450     519.412     875.814
  O     -410.640     519.154     875.080
  C     -408.791     518.107     876.223
  O     -409.506     517.455     877.302
  C     -408.750     517.057     875.102
  O     -407.796     517.391     874.099
  C     -408.428     515.786     875.910
  O     -407.030     515.692     876.186
  C     -409.218     516.032     877.189
  N     -410.468     515.255     877.247
  C     -410.313     513.877     877.430
  O     -409.190     513.375     877.497
  N     -411.456     513.119     877.577
  C     -412.613     513.648     877.398
  N     -413.724     512.859     877.616
  C     -412.811     515.078     877.035
  C     -411.718     515.818     876.991
  O     -412.455     520.118     876.714
  O     -411.196     521.593     875.057
  H     -411.226     522.131     875.865
  H     -406.572     515.693     875.309
  H     -413.821     515.454     876.833
  H     -411.743     516.868     876.749
  H     -408.627     515.785     878.065
  H     -408.719     514.870     875.347
  H     -409.742     516.961     874.649
  H     -407.763     518.329     876.578
  H     -413.562     511.896     877.890
  H     -409.728     519.981     876.719
  H     -414.640     513.261     877.804
  H     -408.783     520.017     875.214
  P     -408.130     516.883     872.609
  C     -407.389     517.598     870.214
  O     -407.468     517.931     871.589
  O     -409.711     517.164     872.453
  O     -407.804     515.471     872.323
  H     -410.120     516.463     871.925
  H     -407.257     518.501     869.637
  H     -408.293     517.094     869.871
  H     -406.541     516.926     870.047
  H     -414.811     520.267     873.391
  H     -414.222     521.540     874.432
  H     -414.722     520.013     875.117

 3  4  5  6  7  8  9  10  11  12  13  24  27  28  29  30  32 0
 6-311+G(2d,p)
 ****
 34  35 0
 6-311+G(2d,p)
 ****
 1  2  14  15  16  17  18  19  20  21  22  23  25  26 0
 3-21G
 ****
 31  33  36  37  38  39  40  41  42  43  44  45  46 0
 3-21G
 ****


