%nproc=1
%NoSave
%Mem=1900MB
#P OB98/GEN NMR

erre ene a

0 1
  C       61.953    -160.348     -66.861
  O       61.711    -160.473     -65.475
  H       62.793    -160.993     -67.132
  H       62.209    -159.315     -67.105
  H       61.072    -160.658     -67.430
  P       60.511    -159.598     -64.868
  C       61.676    -158.109     -63.094
  O       60.916    -159.282     -63.343
  C       61.723    -157.812     -61.594
  O       60.372    -157.535     -61.127
  C       62.276    -158.969     -60.750
  O       63.062    -158.427     -59.683
  C       61.022    -159.599     -60.168
  O       61.291    -160.329     -58.976
  C       60.152    -158.363     -59.969
  N       56.863    -160.792     -57.036
  C       58.221    -160.588     -56.884
  N       58.796    -161.116     -55.781
  N       58.952    -159.927     -57.740
  C       58.243    -159.433     -58.783
  C       56.903    -159.574     -59.054
  C       56.107    -160.328     -58.109
  O       54.906    -160.563     -58.202
  N       56.571    -158.954     -60.234
  C       57.707    -158.440     -60.671
  N       58.748    -158.701     -59.823
  O       59.318    -160.655     -64.718
  O       60.111    -158.408     -65.672
  H       60.437    -160.662     -58.628
  H       58.450    -160.217     -64.818
  H       56.348    -161.319     -56.352
  H       57.829    -157.877     -61.587
  H       60.435    -157.790     -59.076
  H       60.571    -160.283     -60.896
  H       58.290    -161.609     -55.062
  H       62.874    -159.681     -61.322
  H       59.789    -160.967     -55.642
  H       62.304    -156.896     -61.435
  H       61.214    -157.264     -63.617
  H       62.693    -158.251     -63.474
  P       64.657    -158.538     -59.806
  C       64.727    -159.039     -57.260
  O       65.302    -158.335     -58.351
  O       65.051    -157.190     -60.579
  O       65.124    -159.745     -60.553
  H       65.318    -157.400     -61.491
  H       65.261    -158.804     -56.363
  H       64.785    -160.091     -57.444
  H       63.702    -158.752     -57.151

 6  7  8  9  10  11  12  13  14  15  26  29  33  34 0
 6-311+G(2d,p)
 ****
 36  38  39  40  41 0
 6-311+G(2d,p)
 ****
 1  2  3  4  5  16  17  18  19  20  21  22  23  24  25 0
 3-21G
 ****
 27  28  30  31  32  35  37  42  43  44  45  46  47 0
 3-21G
 ****
 48  49 0
 3-21G
 ****


