%nproc=1
%NoSave
%Mem=1900MB
#P OB98/GEN NMR

erre ene a

0 1
  C     -138.397    -196.667      58.655
  O     -138.196    -198.066      58.888
  P     -136.764    -198.517      59.454
  C     -137.752    -200.706      60.506
  O     -136.840    -200.115      59.592
  C     -137.688    -202.229      60.398
  O     -138.518    -202.698      59.308
  C     -136.296    -202.773      60.113
  O     -135.469    -202.714      61.263
  C     -136.630    -204.179      59.632
  O     -136.872    -205.045      60.750
  C     -137.942    -203.945      58.849
  N     -137.755    -203.950      57.405
  C     -137.450    -205.181      56.835
  O     -137.316    -206.214      57.496
  N     -137.282    -205.186      55.476
  C     -137.358    -204.100      54.657
  O     -137.208    -204.169      53.444
  C     -137.634    -202.816      55.324
  C     -137.818    -202.798      56.643
  O     -136.846    -197.984      60.960
  O     -135.625    -197.986      58.654
  H     -137.739    -198.046      61.338
  H     -136.018    -205.136      61.219
  H     -137.072    -206.074      55.044
  H     -137.677    -201.929      54.704
  H     -138.020    -201.862      57.154
  H     -138.671    -204.726      59.099
  H     -135.822    -204.623      59.040
  H     -135.833    -202.201      59.297
  H     -138.074    -202.653      61.334
  H     -138.771    -200.373      60.286
  H     -137.505    -200.370      61.517
  P     -134.142    -201.813      61.162
  C     -133.938    -201.342      63.724
  O     -133.395    -201.944      62.573
  O     -134.768    -200.339      61.186
  O     -133.309    -202.106      59.958
  H     -135.465    -200.234      61.857
  H     -133.505    -201.819      64.609
  H     -135.027    -201.457      63.763
  H     -133.685    -200.279      63.738
  H     -139.387    -196.506      58.281
  H     -137.684    -196.319      57.937
  H     -138.271    -196.131      59.572

 3  4  5  6  7  8  9  10  11  12  13  24  28  29  30  31  32 0
 6-311+G(2d,p)
 ****
 33  34 0
 6-311+G(2d,p)
 ****
 1  2  14  15  16  17  18  19  20  21  22  23  25  26  27 0
 3-21G
 ****
 35  36  37  38  39  40  41  42  43  44  45 0
 3-21G
 ****


