%nproc=1
%NoSave
%Mem=1900MB
#P OB98/GEN NMR

erre ene a

0 1
  C      289.510     520.188      46.327
  O      288.761     520.708      45.225
  P      289.514     521.071      43.862
  C      288.075     519.429      42.473
  O      289.387     519.842      42.841
  C      288.150     518.322      41.416
  O      288.724     517.109      41.960
  C      286.778     517.902      40.901
  O      286.089     518.839      40.102
  C      287.065     516.545      40.286
  O      287.588     516.661      38.963
  C      288.147     515.991      41.250
  N      287.617     514.988      42.175
  C      287.979     513.671      41.919
  O      288.657     513.330      40.954
  N      287.494     512.740      42.798
  C      286.675     512.986      43.861
  O      286.254     512.111      44.601
  C      286.311     514.398      44.065
  C      286.793     515.321      43.230
  O      290.886     521.639      44.007
  O      288.532     522.164      43.199
  H      287.949     515.789      38.715
  H      289.087     522.862      42.806
  H      287.752     511.776      42.629
  H      285.658     514.634      44.897
  H      286.533     516.366      43.367
  H      288.962     515.527      40.681
  H      286.160     515.930      40.226
  H      286.133     517.727      41.772
  H      288.797     518.657      40.606
  H      287.515     520.283      42.091
  H      287.546     519.088      43.373
  P      284.900     519.762      40.655
  C      286.205     521.990      40.381
  O      285.544     521.105      41.257
  O      283.831     519.097      41.458
  O      284.248     520.299      39.288
  H      283.294     520.414      39.421
  H      286.591     522.834      40.958
  H      285.516     522.367      39.627
  H      287.047     521.486      39.895
  H      288.852     520.003      47.150
  H      290.255     520.899      46.619
  H      289.984     519.274      46.036

 3  4  5  6  7  8  9  10  11  12  13  23  28  29  30  31  32 0
 6-311+G(2d,p)
 ****
 33  34 0
 6-311+G(2d,p)
 ****
 1  2  14  15  16  17  18  19  20  21  22  24  25  26  27 0
 3-21G
 ****
 35  36  37  38  39  40  41  42  43  44  45 0
 3-21G
 ****


