%nproc=1
%NoSave
%Mem=1900MB
#P OB98/GEN NMR

erre ene a

0 1
  C     -894.190    -898.970    -897.839
  O     -895.450    -899.060    -898.479
  H     -893.410    -899.220    -898.569
  H     -894.130    -899.680    -897.009
  H     -894.020    -897.960    -897.489
  P     -896.780    -898.890    -897.599
  C     -896.870    -896.320    -897.829
  O     -896.710    -897.430    -896.939
  C     -896.850    -895.000    -897.059
  O     -897.930    -895.020    -896.089
  C     -895.530    -894.750    -896.299
  O     -895.230    -893.370    -896.359
  C     -895.890    -895.150    -894.879
  O     -895.050    -894.530    -893.939
  C     -897.370    -894.760    -894.789
  N     -898.060    -895.510    -893.739
  C     -897.950    -894.990    -892.439
  O     -897.320    -893.960    -892.219
  N     -898.520    -895.700    -891.409
  C     -899.070    -896.860    -891.629
  N     -899.570    -897.510    -890.559
  C     -899.190    -897.450    -892.989
  C     -898.670    -896.730    -893.979
  O     -897.070    -900.000    -896.639
  O     -897.940    -898.750    -898.699
  H     -895.100    -893.560    -894.029
  H     -898.310    -899.630    -898.909
  H     -899.660    -898.400    -893.129
  H     -898.690    -897.080    -895.009
  H     -897.470    -893.690    -894.579
  H     -895.790    -896.250    -894.769
  H     -894.690    -895.350    -896.689
  H     -897.060    -894.180    -897.759
  H     -899.450    -897.080    -889.649
  H     -897.840    -896.450    -898.329
  H     -900.000    -898.440    -890.609
  H     -896.080    -896.330    -898.579
  P     -893.940    -892.840    -897.169
  C     -895.410    -891.750    -898.949
  O     -894.330    -892.640    -898.719
  O     -892.700    -893.640    -896.939
  O     -893.740    -891.340    -896.649
  H     -892.790    -891.120    -896.679
  H     -895.597    -891.680    -900.000
  H     -895.163    -890.782    -898.565
  H     -896.286    -892.116    -898.455

 6  7  8  9  10  11  12  13  14  15  16  26  30  31  32  33  35 0
 6-311+G(2d,p)
 ****
 37  38 0
 6-311+G(2d,p)
 ****
 1  2  3  4  5  17  18  19  20  21  22  23  24  25 0
 3-21G
 ****
 27  28  29  34  36  39  40  41  42  43  44  45  46 0
 3-21G
 ****


