%nproc=1
%NoSave
%Mem=1900MB
#P OB98/GEN NMR

erre ene a

0 1
  C      904.431     389.061     764.722
  O      903.047     388.830     764.882
  H      904.923     388.941     765.692
  H      904.592     390.087     764.371
  H      904.873     388.357     764.017
  P      902.164     388.493     763.587
  C      901.713     386.044     764.244
  O      902.299     386.916     763.298
  C      900.523     385.269     763.666
  O      900.956     384.515     762.511
  C      899.923     384.275     764.657
  O      898.940     384.820     765.515
  C      899.311     383.237     763.720
  O      897.962     383.580     763.350
  C      900.223     383.278     762.490
  N      900.986     378.367     761.250
  C      899.802     379.075     761.282
  N      898.680     378.380     760.997
  N      899.734     380.347     761.597
  C      900.922     380.893     761.959
  C      902.164     380.275     761.971
  C      902.234     378.899     761.554
  O      903.264     378.226     761.482
  N      903.133     381.125     762.450
  C      902.473     382.209     762.790
  N      901.149     382.148     762.451
  O      903.014     389.140     762.386
  O      900.767     389.030     763.601
  H      897.668     382.946     762.662
  H      902.401     389.430     761.677
  H      900.988     377.413     760.967
  H      902.906     383.099     763.248
  H      899.654     383.261     761.551
  H      899.258     382.256     764.208
  H      898.668     377.391     760.831
  H      900.709     383.789     765.240
  H      897.775     378.815     761.211
  H      899.770     385.994     763.310
  H      901.381     386.659     765.087
  H      902.470     385.339     764.638
  P      898.969     384.557     767.085
  C      900.238     386.728     767.862
  O      900.226     385.322     767.703
  O      899.418     383.018     767.179
  O      897.695     384.825     767.824
  H      898.626     382.446     767.324
  H      901.170     387.030     768.291
  H      899.436     387.021     768.507
  H      900.116     387.196     766.907

 6  7  8  9  10  11  12  13  14  15  26  29  33  34 0
 6-311+G(2d,p)
 ****
 36  38  39  40  41 0
 6-311+G(2d,p)
 ****
 1  2  3  4  5  16  17  18  19  20  21  22  23  24  25 0
 3-21G
 ****
 27  28  30  31  32  35  37  42  43  44  45  46  47 0
 3-21G
 ****
 48  49 0
 3-21G
 ****


