%nproc=1
%NoSave
%Mem=1900MB
#P OB98/GEN NMR

erre ene a

0 1
  C      176.312    -125.168     -95.312
  O      175.042    -124.613     -95.586
  H      176.737    -124.711     -94.414
  H      176.200    -126.242     -95.141
  H      176.984    -125.014     -96.160
  P      174.981    -123.029     -95.829
  C      175.757    -122.027     -98.091
  O      174.784    -122.806     -97.409
  C      175.891    -122.506     -99.536
  O      176.338    -123.885     -99.521
  C      174.593    -122.434    -100.357
  O      174.784    -121.620    -101.518
  C      174.351    -123.866    -100.809
  O      173.883    -123.961    -102.155
  C      175.714    -124.527    -100.640
  N      175.162    -129.040    -102.944
  C      175.637    -127.858    -103.394
  N      175.859    -126.724    -102.702
  C      175.560    -126.893    -101.404
  C      175.089    -128.041    -100.790
  C      174.871    -129.151    -101.625
  N      174.332    -130.337    -101.177
  N      174.887    -127.830     -99.439
  C      175.191    -126.563     -99.247
  N      175.584    -125.952    -100.409
  O      176.490    -122.561     -95.570
  O      174.017    -122.291     -94.962
  H      173.979    -124.895    -102.418
  H      176.496    -121.783     -94.979
  H      175.865    -127.818    -104.458
  H      175.104    -126.030     -98.308
  H      176.358    -124.377    -101.517
  H      173.603    -124.326    -100.152
  H      173.743    -122.056     -99.774
  H      176.678    -121.919    -100.021
  H      176.727    -122.133     -97.593
  H      174.099    -131.037    -101.863
  H      174.008    -130.390    -100.218
  H      175.461    -120.973     -98.057
  P      174.567    -120.036    -101.331
  C      176.218    -118.020    -101.346
  O      176.005    -119.389    -101.026
  O      173.816    -119.941     -99.920
  O      173.785    -119.398    -102.426
  H      173.271    -119.135     -99.885
  H      177.218    -117.744    -101.084
  H      175.526    -117.414    -100.799
  H      176.070    -117.872    -102.395

 6  7  8  9  10  11  12  13  14  15  25  28  32  33  34  35 0
 6-311+G(2d,p)
 ****
 36  39  40 0
 6-311+G(2d,p)
 ****
 1  2  3  4  5  16  17  18  19  20  21  22  23  24 0
 3-21G
 ****
 26  27  29  30  31  37  38  41  42  43  44  45  46  47  48 0
 3-21G
 ****


