%nproc=1
%NoSave
%Mem=1900MB
#P OB98/GEN NMR

erre ene a

0 1
  C      -22.468      18.032       6.761
  O      -21.783      16.835       6.457
  H      -23.368      17.784       7.329
  H      -22.763      18.551       5.846
  H      -21.839      18.684       7.373
  P      -20.482      16.916       5.527
  C      -20.216      15.099       3.707
  O      -20.136      15.414       5.089
  C      -19.818      13.639       3.456
  O      -18.429      13.456       3.852
  C      -20.656      12.622       4.249
  O      -20.712      11.418       3.474
  C      -19.798      12.427       5.483
  O      -20.195      11.293       6.213
  C      -18.403      12.413       4.850
  N      -17.344      12.616       5.826
  C      -16.600      11.487       6.174
  O      -16.860      10.393       5.673
  N      -15.599      11.617       7.102
  C      -15.405      12.759       7.683
  N      -14.407      12.818       8.605
  C      -16.209      13.964       7.387
  C      -17.149      13.823       6.454
  O      -19.332      17.686       6.084
  O      -21.019      17.574       4.169
  H      -20.010      10.468       5.709
  H      -20.734      18.505       4.119
  H      -16.019      14.887       7.913
  H      -17.791      14.651       6.169
  H      -18.220      11.464       4.330
  H      -19.895      13.282       6.158
  H      -21.665      12.979       4.468
  H      -19.871      13.440       2.379
  H      -13.889      11.966       8.784
  H      -19.533      15.768       3.176
  H      -14.178      13.645       9.134
  H      -21.233      15.270       3.339
  P      -21.745      11.208       2.266
  C      -22.114       8.742       2.926
  O      -21.798       9.654       1.879
  O      -21.511      12.117       1.102
  O      -23.190      11.480       2.902
  H      -23.776      11.848       2.215
  H      -22.117       7.744       2.541
  H      -23.080       8.975       3.322
  H      -21.382       8.822       3.702

 6  7  8  9  10  11  12  13  14  15  16  26  30  31  32  33  35 0
 6-311+G(2d,p)
 ****
 37  38 0
 6-311+G(2d,p)
 ****
 1  2  3  4  5  17  18  19  20  21  22  23  24  25 0
 3-21G
 ****
 27  28  29  34  36  39  40  41  42  43  44  45  46 0
 3-21G
 ****


