%nproc=1
%NoSave
%Mem=1900MB
#P OB98/GEN NMR

erre ene a

0 1
  C       10.946     126.635     -16.226
  O       11.319     127.538     -17.246
  H       10.112     126.026     -16.583
  H       10.629     127.180     -15.333
  H       11.786     125.978     -15.982
  P       12.462     128.605     -16.875
  C       14.384     126.977     -17.551
  O       13.689     128.184     -17.824
  C       15.424     126.717     -18.635
  O       14.783     126.361     -19.881
  C       16.307     127.916     -18.967
  O       17.331     128.142     -18.014
  C       16.868     127.465     -20.303
  O       17.871     126.454     -20.090
  C       15.607     126.870     -20.965
  N       14.862     127.849     -21.761
  C       15.475     128.299     -22.936
  O       16.584     127.884     -23.265
  N       14.829     129.242     -23.698
  C       13.665     129.682     -23.335
  N       13.076     130.616     -24.129
  C       12.977     129.227     -22.114
  C       13.623     128.321     -21.383
  O       12.957     128.130     -15.430
  O       12.069     130.041     -16.955
  H       18.569     126.866     -19.548
  H       13.767     128.634     -15.169
  H       12.012     129.632     -21.844
  H       13.180     127.938     -20.471
  H       15.864     126.020     -21.608
  H       17.343     128.267     -20.868
  H       15.712     128.823     -19.123
  H       16.026     125.856     -18.320
  H       13.599     130.952     -24.927
  H       13.656     126.160     -17.524
  H       12.247     131.126     -23.855
  H       14.883     127.043     -16.579
  P       18.030     129.588     -18.013
  C       16.687     130.567     -16.009
  O       17.947     130.143     -16.513
  O       16.981     130.500     -18.803
  O       19.390     129.630     -18.636
  H       17.439     131.186     -19.326
  H       16.802     130.907     -15.001
  H       15.999     129.748     -16.033
  H       16.311     131.366     -16.614

 6  7  8  9  10  11  12  13  14  15  16  26  30  31  32  33  35 0
 6-311+G(2d,p)
 ****
 37  38 0
 6-311+G(2d,p)
 ****
 1  2  3  4  5  17  18  19  20  21  22  23  24  25 0
 3-21G
 ****
 27  28  29  34  36  39  40  41  42  43  44  45  46 0
 3-21G
 ****


