%nproc=1
%NoSave
%Mem=1900MB
#P OB98/GEN NMR

erre ene a

0 1
  C      676.870     135.010     197.940
  O      676.942     133.683     198.414
  H      677.318     135.054     196.940
  H      677.422     135.687     198.596
  H      675.826     135.334     197.860
  P      676.380     133.364     199.886
  C      678.587     133.275     201.228
  O      677.533     132.532     200.629
  C      679.609     132.327     201.868
  O      680.792     133.047     202.262
  C      679.105     131.614     203.116
  O      678.307     130.488     202.769
  C      680.424     131.219     203.752
  O      680.976     130.072     203.076
  C      681.290     132.461     203.484
  N      682.086     133.466     208.406
  C      682.116     132.251     207.739
  N      682.361     131.152     208.480
  N      681.903     132.141     206.443
  C      681.614     133.309     205.843
  C      681.540     134.567     206.402
  C      681.840     134.693     207.818
  O      681.861     135.751     208.448
  N      681.128     135.505     205.493
  C      680.995     134.829     204.366
  N      681.267     133.485     204.528
  O      675.031     132.725     199.944
  O      676.412     134.780     200.634
  H      681.813     129.854     203.517
  H      675.559     135.246     200.535
  H      682.254     133.487     209.406
  H      680.703     135.256     203.421
  H      682.344     132.202     203.328
  H      680.318     130.947     204.812
  H      682.366     131.160     209.493
  H      678.568     132.300     203.787
  H      682.315     130.257     208.012
  H      679.916     131.600     201.094
  H      678.142     133.923     201.989
  H      679.087     133.899     200.478
  P      676.773     130.366     203.241
  C      677.490     129.392     205.528
  O      676.759     129.188     204.353
  O      675.786     130.200     202.146
  O      676.541     131.659     204.156
  H      676.296     132.463     203.622
  H      677.389     128.537     206.164
  H      677.118     130.259     206.033
  H      678.522     129.536     205.285

 6  7  8  9  10  11  12  13  14  15  26  29  33  34 0
 6-311+G(2d,p)
 ****
 36  38  39  40  41 0
 6-311+G(2d,p)
 ****
 1  2  3  4  5  16  17  18  19  20  21  22  23  24  25 0
 3-21G
 ****
 27  28  30  31  32  35  37  42  43  44  45  46  47 0
 3-21G
 ****
 48  49 0
 3-21G
 ****


