%nproc=1
%NoSave
%Mem=1900MB
#P OB98/GEN NMR

erre ene a

0 1
  C      620.519     371.841      23.963
  O      619.874     371.909      25.219
  H      621.071     372.770      23.806
  H      619.783     371.729      23.160
  H      621.226     371.006      23.938
  P      618.958     370.676      25.674
  C      621.183     369.765      26.621
  O      619.960     369.455      25.965
  C      621.781     368.504      27.241
  O      623.045     368.804      27.860
  C      620.912     367.870      28.329
  O      619.894     367.072      27.749
  C      621.953     367.041      29.066
  O      622.249     365.853      28.306
  C      623.172     367.985      29.059
  N      625.508     368.829      33.483
  C      625.583     367.739      32.636
  N      626.363     366.716      33.042
  N      624.937     367.653      31.501
  C      624.136     368.719      31.262
  C      623.965     369.848      32.029
  C      624.741     369.957      33.250
  O      624.722     370.919      34.018
  N      623.003     370.672      31.509
  C      622.630     370.066      30.399
  N      623.281     368.872      30.206
  O      617.823     370.327      24.760
  O      618.447     371.082      27.139
  H      621.542     365.209      28.494
  H      617.589     371.546      27.096
  H      626.025     368.833      34.347
  H      621.895     370.449      29.695
  H      624.115     367.438      28.989
  H      621.617     366.719      30.048
  H      626.767     366.660      33.970
  H      620.508     368.622      29.012
  H      626.380     365.885      32.460
  H      621.980     367.792      26.431
  H      620.963     370.506      27.392
  H      621.899     370.201      25.912
  P      618.682     366.488      28.629
  C      617.300     368.662      28.423
  O      617.975     367.765      29.282
  O      619.074     365.423      29.600
  O      617.600     366.021      27.551
  H      617.760     365.108      27.209
  H      616.881     369.460      28.999
  H      616.517     368.143      27.910
  H      617.991     369.061      27.710

 6  7  8  9  10  11  12  13  14  15  26  29  33  34 0
 6-311+G(2d,p)
 ****
 36  38  39  40  41 0
 6-311+G(2d,p)
 ****
 1  2  3  4  5  16  17  18  19  20  21  22  23  24  25 0
 3-21G
 ****
 27  28  30  31  32  35  37  42  43  44  45  46  47 0
 3-21G
 ****
 48  49 0
 3-21G
 ****


