%nproc=1
%NoSave
%Mem=1900MB
#P OB98/GEN NMR

erre ene a

0 1
  C     -256.667    -234.161    -254.341
  O     -257.657    -234.424    -253.356
  P     -258.338    -235.882    -253.353
  C     -258.995    -236.021    -250.845
  O     -258.114    -236.460    -251.875
  C     -258.515    -236.515    -249.482
  O     -257.142    -236.133    -249.272
  C     -259.284    -235.948    -248.299
  O     -260.499    -236.646    -248.064
  C     -258.300    -236.203    -247.168
  O     -258.370    -237.583    -246.758
  C     -256.954    -235.924    -247.846
  N     -255.253    -232.646    -244.308
  C     -255.735    -233.903    -244.211
  N     -256.178    -234.707    -245.200
  C     -256.127    -234.075    -246.387
  C     -255.697    -232.780    -246.631
  C     -255.233    -232.050    -245.527
  N     -254.720    -230.779    -245.629
  N     -255.796    -232.482    -247.975
  C     -256.268    -233.581    -248.531
  N     -256.474    -234.574    -247.614
  O     -257.328    -236.749    -254.243
  O     -259.729    -235.927    -253.879
  H     -257.693    -237.706    -246.066
  H     -257.794    -237.525    -254.618
  H     -255.755    -234.322    -243.214
  H     -256.464    -233.701    -249.588
  H     -256.168    -236.614    -247.520
  H     -258.504    -235.595    -246.282
  H     -259.445    -234.868    -248.407
  H     -258.564    -237.611    -249.487
  H     -259.996    -236.416    -251.035
  H     -254.237    -230.398    -244.830
  H     -254.518    -230.422    -246.558
  H     -259.043    -234.927    -250.859
  P     -261.860    -235.828    -248.299
  C     -263.052    -236.782    -250.403
  O     -262.108    -235.864    -249.882
  O     -261.429    -234.312    -248.009
  O     -262.994    -236.274    -247.441
  H     -262.202    -233.790    -247.726
  H     -263.320    -236.469    -251.417
  H     -263.958    -236.804    -249.792
  H     -262.613    -237.783    -250.448
  H     -256.305    -233.161    -254.224
  H     -257.094    -234.274    -255.315
  H     -255.857    -234.850    -254.225

 3  4  5  6  7  8  9  10  11  12  22  25  29  30  31  32 0
 6-311+G(2d,p)
 ****
 33  36  37 0
 6-311+G(2d,p)
 ****
 1  2  13  14  15  16  17  18  19  20  21  23  24  26 0
 3-21G
 ****
 27  28  34  35  38  39  40  41  42  43  44  45  46  47  48 0
 3-21G
 ****


