%nproc=1
%NoSave
%Mem=1900MB
#P OB98/GEN NMR

erre ene a

0 1
  C      -90.799       9.853    -144.129
  O      -90.292      11.073    -143.577
  P      -88.987      11.708    -144.262
  C      -90.212      14.022    -144.405
  O      -89.076      13.283    -143.976
  C      -90.508      15.147    -143.414
  O      -91.100      14.620    -142.202
  C      -89.276      15.916    -142.963
  O      -88.812      16.793    -143.976
  C      -89.812      16.609    -141.715
  O      -90.563      17.780    -142.076
  C      -90.756      15.536    -141.135
  N      -90.189      14.833    -139.990
  C      -90.370      15.445    -138.754
  O      -90.946      16.524    -138.614
  N      -89.844      14.783    -137.677
  C      -89.146      13.612    -137.721
  O      -88.705      13.059    -136.720
  C      -88.942      13.039    -139.060
  C      -89.466      13.664    -140.120
  O      -89.351      11.563    -145.811
  O      -87.724      11.039    -143.840
  H      -90.299      11.684    -145.992
  H      -90.894      18.164    -141.241
  H      -89.974      15.203    -136.770
  H      -88.370      12.122    -139.136
  H      -89.322      13.259    -141.117
  H      -91.700      15.994    -140.816
  H      -89.013      16.930    -141.039
  H      -88.479      15.217    -142.686
  H      -91.230      15.829    -143.882
  H      -91.081      13.362    -144.469
  H      -90.020      14.414    -145.407
  P      -87.359      17.448    -143.761
  C      -86.228      16.975    -146.071
  O      -86.846      17.905    -145.210
  O      -86.481      16.152    -143.430
  O      -87.330      18.501    -142.704
  H      -86.671      15.401    -144.015
  H      -86.272      17.361    -147.093
  H      -86.732      16.005    -146.042
  H      -85.181      16.853    -145.786
  H      -91.664       9.545    -143.580
  H      -90.048       9.094    -144.066
  H      -91.064      10.008    -145.154

 3  4  5  6  7  8  9  10  11  12  13  24  28  29  30  31  32 0
 6-311+G(2d,p)
 ****
 33  34 0
 6-311+G(2d,p)
 ****
 1  2  14  15  16  17  18  19  20  21  22  23  25  26  27 0
 3-21G
 ****
 35  36  37  38  39  40  41  42  43  44  45 0
 3-21G
 ****


