%nproc=1
%NoSave
%Mem=1900MB
#P OB98/GEN NMR

erre ene a

0 1
  C      -77.450    -251.531    -234.783
  O      -76.415    -250.920    -234.042
  P      -75.008    -251.653    -233.815
  C      -74.156    -253.932    -233.008
  O      -75.296    -253.098    -233.189
  C      -74.527    -255.242    -232.313
  O      -75.515    -255.947    -233.111
  C      -73.342    -256.191    -232.083
  O      -73.536    -256.815    -230.812
  C      -73.493    -257.202    -233.205
  O      -72.833    -258.426    -232.918
  C      -75.021    -257.287    -233.307
  N      -75.462    -257.834    -234.584
  C      -76.271    -258.970    -234.536
  O      -76.478    -259.543    -233.461
  N      -76.815    -259.434    -235.710
  C      -76.429    -258.929    -236.840
  N      -77.042    -259.373    -237.973
  C      -75.381    -257.890    -236.936
  C      -74.976    -257.364    -235.783
  O      -73.986    -250.850    -233.081
  O      -74.506    -251.998    -235.301
  H      -73.603    -251.647    -235.418
  H      -73.285    -258.860    -232.164
  H      -74.999    -257.591    -237.901
  H      -74.231    -256.578    -235.750
  H      -75.427    -257.909    -232.498
  H      -73.069    -256.791    -234.131
  H      -72.378    -255.670    -232.089
  H      -75.003    -254.995    -231.351
  H      -77.783    -260.054    -237.862
  H      -73.439    -253.392    -232.388
  H      -77.041    -258.829    -238.833
  H      -73.685    -254.132    -233.977
  P      -72.287    -257.563    -230.130
  C      -71.491    -260.031    -229.978
  O      -72.257    -259.070    -230.675
  O      -72.816    -257.761    -228.622
  O      -70.990    -256.819    -230.117
  H      -72.045    -257.832    -228.023
  H      -71.530    -260.975    -230.526
  H      -71.897    -260.186    -228.973
  H      -70.446    -259.709    -229.909
  H      -78.298    -250.879    -234.815
  H      -77.726    -252.453    -234.316
  H      -77.110    -251.723    -235.779

 3  4  5  6  7  8  9  10  11  12  13  24  27  28  29  30  32 0
 6-311+G(2d,p)
 ****
 34  35 0
 6-311+G(2d,p)
 ****
 1  2  14  15  16  17  18  19  20  21  22  23  25  26 0
 3-21G
 ****
 31  33  36  37  38  39  40  41  42  43  44  45  46 0
 3-21G
 ****


