%nproc=1
%NoSave
%Mem=1900MB
#P OB98/GEN NMR

erre ene a

0 1
  C       42.921     -20.748     -95.118
  O       42.916     -20.689     -93.701
  P       43.840     -21.672     -92.828
  C       41.891     -23.369     -92.849
  O       43.268     -23.141     -93.116
  C       41.578     -24.857     -92.975
  O       41.863     -25.299     -94.317
  C       42.399     -25.755     -92.060
  O       41.921     -25.699     -90.725
  C       42.242     -27.100     -92.758
  O       40.973     -27.688     -92.432
  C       42.260     -26.689     -94.245
  N       43.559     -26.897     -94.875
  C       43.702     -28.057     -95.642
  O       42.768     -28.846     -95.780
  N       44.899     -28.284     -96.276
  C       45.876     -27.442     -96.136
  N       47.015     -27.684     -96.840
  C       45.786     -26.238     -95.291
  C       44.612     -26.027     -94.702
  O       43.943     -21.315     -91.385
  O       45.241     -21.689     -93.591
  H       40.875     -28.478     -92.998
  H       45.859     -20.974     -93.300
  H       46.633     -25.572     -95.195
  H       44.459     -25.154     -94.081
  H       41.503     -27.251     -94.803
  H       43.023     -27.822     -92.497
  H       43.454     -25.454     -92.074
  H       40.505     -24.999     -92.788
  H       46.970     -28.418     -97.537
  H       41.297     -22.814     -93.583
  H       47.693     -26.952     -97.013
  H       41.651     -22.998     -91.848
  P       42.893     -26.230     -89.565
  C       41.973     -28.612     -90.019
  O       43.117     -27.792     -89.862
  O       41.963     -26.199     -88.265
  O       44.138     -25.427     -89.391
  H       42.164     -25.413     -87.723
  H       42.288     -29.568     -90.443
  H       41.252     -28.147     -90.696
  H       41.510     -28.794     -89.046
  H       42.243     -20.018     -95.508
  H       42.616     -21.723     -95.435
  H       43.908     -20.548     -95.480

 3  4  5  6  7  8  9  10  11  12  13  23  27  28  29  30  32 0
 6-311+G(2d,p)
 ****
 34  35 0
 6-311+G(2d,p)
 ****
 1  2  14  15  16  17  18  19  20  21  22  24  25  26 0
 3-21G
 ****
 31  33  36  37  38  39  40  41  42  43  44  45  46 0
 3-21G
 ****


