%nproc=1
%NoSave
%Mem=1900MB
#P OB98/GEN NMR

erre ene a

0 1
  C      117.274    -216.785     -63.189
  O      117.113    -215.700     -62.277
  P      116.487    -214.279     -62.644
  C      113.890    -214.395     -62.246
  O      115.178    -214.052     -61.754
  C      112.801    -214.104     -61.200
  O      113.243    -214.621     -59.908
  C      112.546    -212.601     -61.021
  O      111.166    -212.268     -60.902
  C      113.449    -212.239     -59.852
  O      113.085    -211.029     -59.208
  C      113.385    -213.503     -58.998
  N      115.777    -212.158     -54.692
  C      114.653    -211.607     -55.277
  N      114.093    -210.554     -54.645
  N      114.128    -212.045     -56.390
  C      114.826    -213.055     -56.960
  C      115.964    -213.669     -56.487
  C      116.505    -213.211     -55.226
  O      117.491    -213.676     -54.654
  N      116.384    -214.666     -57.336
  C      115.515    -214.635     -58.330
  N      114.545    -213.679     -58.141
  O      116.372    -213.972     -64.101
  O      117.536    -213.227     -62.010
  H      112.236    -211.175     -58.748
  H      117.522    -212.439     -62.593
  H      116.125    -211.794     -53.821
  H      115.535    -215.289     -59.195
  H      112.520    -213.506     -58.332
  H      114.463    -212.097     -60.252
  H      114.514    -210.091     -53.854
  H      112.867    -212.042     -61.909
  H      113.412    -210.022     -55.187
  H      111.887    -214.635     -61.486
  H      113.924    -215.469     -62.458
  H      113.684    -213.879     -63.186
  P      110.069    -212.136     -62.055
  C      108.938    -214.428     -62.291
  O      108.859    -213.132     -61.726
  O      110.738    -212.801     -63.346
  O      109.649    -210.733     -62.357
  H      110.825    -212.137     -64.054
  H      107.956    -214.903     -62.220
  H      109.663    -215.028     -61.739
  H      109.229    -214.370     -63.345
  H      117.718    -217.615     -62.681
  H      117.907    -216.481     -63.996
  H      116.318    -217.072     -63.574

 3  4  5  6  7  8  9  10  11  12  23  26  30  31 0
 6-311+G(2d,p)
 ****
 33  35  36  37  38 0
 6-311+G(2d,p)
 ****
 1  2  13  14  15  16  17  18  19  20  21  22  24  25 0
 3-21G
 ****
 27  28  29  32  34  39  40  41  42  43  44  45  46  47  48  49 0
 3-21G
 ****


