%nproc=1
%NoSave
%Mem=1900MB
#P OB98/GEN NMR

erre ene a

0 1
  C     -207.354     -88.992     206.423
  O     -206.906     -88.360     205.238
  H     -208.444     -89.064     206.394
  H     -207.070     -88.409     207.307
  H     -206.935     -90.000     206.497
  P     -205.351     -87.997     205.115
  C     -205.813     -85.456     204.947
  O     -205.209     -86.508     205.690
  C     -205.504     -84.113     205.599
  O     -206.267     -83.955     206.811
  C     -204.046     -83.962     206.004
  O     -203.229     -83.707     204.877
  C     -204.142     -82.837     207.013
  O     -204.225     -81.560     206.362
  C     -205.466     -83.178     207.731
  N     -205.260     -83.899     208.985
  C     -204.829     -83.131     210.072
  O     -204.649     -81.919     209.949
  N     -204.592     -83.765     211.267
  C     -204.783     -85.042     211.373
  N     -204.530     -85.607     212.584
  C     -205.253     -85.885     210.255
  C     -205.465     -85.252     209.102
  O     -204.713     -88.202     203.772
  O     -204.663     -88.894     206.249
  H     -204.248     -80.896     207.080
  H     -204.409     -89.764     205.890
  H     -205.405     -86.944     210.393
  H     -205.810     -85.801     208.231
  H     -206.033     -82.263     207.951
  H     -203.273     -82.815     207.674
  H     -203.707     -84.862     206.531
  H     -205.802     -83.314     204.904
  H     -204.201     -84.992     213.320
  H     -206.894     -85.638     204.951
  H     -204.727     -86.570     212.808
  H     -205.464     -85.465     203.910
  P     -201.633     -83.787     204.990
  C     -201.505     -81.246     204.560
  O     -201.164     -82.315     205.437
  O     -200.936     -84.349     203.797
  O     -201.406     -84.651     206.322
  H     -201.606     -85.607     206.170
  H     -201.141     -80.324     204.963
  H     -202.569     -81.195     204.457
  H     -201.061     -81.416     203.601

 6  7  8  9  10  11  12  13  14  15  16  26  30  31  32  33  35 0
 6-311+G(2d,p)
 ****
 37  38 0
 6-311+G(2d,p)
 ****
 1  2  3  4  5  17  18  19  20  21  22  23  24  25 0
 3-21G
 ****
 27  28  29  34  36  39  40  41  42  43  44  45  46 0
 3-21G
 ****


