%nproc=1
%NoSave
%Mem=1900MB
#P OB98/GEN NMR

erre ene a

0 1
  C       17.398    1033.502     818.399
  O       18.343    1034.482     818.020
  H       16.968    1033.788     819.358
  H       17.891    1032.541     818.515
  H       16.597    1033.433     817.665
  P       19.012    1034.396     816.567
  C       18.884    1036.964     816.724
  O       19.615    1035.843     816.234
  C       19.491    1038.256     816.158
  O       19.392    1038.265     814.706
  C       18.796    1039.530     816.643
  O       19.130    1039.853     817.973
  C       19.280    1040.529     815.579
  O       20.592    1041.012     815.911
  C       19.318    1039.653     814.305
  N       18.160    1039.882     813.440
  C       18.132    1041.109     812.773
  O       19.038    1041.944     812.854
  N       17.008    1041.346     812.022
  C       15.871    1040.573     812.002
  O       14.818    1040.944     811.530
  C       15.973    1039.288     812.707
  C       17.089    1039.010     813.396
  O       18.148    1033.801     815.497
  O       20.324    1033.512     816.811
  H       20.155    1032.593     816.511
  H       20.863    1041.578     815.161
  H       16.965    1042.250     811.558
  H       15.133    1038.597     812.658
  H       17.183    1038.054     813.923
  H       20.224    1039.870     813.731
  H       18.612    1041.369     815.513
  H       17.705    1039.409     816.532
  H       20.579    1038.279     816.424
  H       18.957    1036.976     817.811
  H       17.829    1036.865     816.414
  P       18.007    1040.349     818.992
  C       19.507    1039.459     820.887
  O       18.691    1040.521     820.451
  O       16.739    1039.556     818.988
  O       17.727    1041.844     818.552
  H       16.749    1041.969     818.443
  H       19.900    1039.686     821.856
  H       20.314    1039.323     820.198
  H       18.927    1038.561     820.938

 6  7  8  9  10  11  12  13  14  15  16  27  31  32  33  34  35 0
 6-311+G(2d,p)
 ****
 36  37 0
 6-311+G(2d,p)
 ****
 1  2  3  4  5  17  18  19  20  21  22  23  24  25 0
 3-21G
 ****
 26  28  29  30  38  39  40  41  42  43  44  45 0
 3-21G
 ****


