%nproc=1
%NoSave
%Mem=1900MB
#P OB98/GEN NMR

erre ene a

0 1
  C     -541.401     347.615    -299.411
  O     -541.768     348.651    -300.310
  P     -541.299     350.177    -300.056
  C     -543.355     351.683    -299.534
  O     -542.386     350.751    -299.032
  C     -544.429     350.954    -300.314
  O     -544.946     349.846    -299.523
  C     -545.622     351.807    -300.673
  O     -545.342     352.673    -301.761
  C     -546.676     350.727    -300.963
  O     -546.484     350.164    -302.284
  C     -546.315     349.669    -299.888
  N     -547.220     349.731    -298.728
  C     -548.235     348.774    -298.658
  O     -548.374     347.933    -299.553
  N     -549.074     348.772    -297.573
  C     -548.918     349.667    -296.642
  N     -549.729     349.599    -295.557
  C     -547.877     350.728    -296.707
  C     -547.069     350.693    -297.746
  O     -541.110     350.992    -301.295
  O     -539.981     350.038    -299.141
  H     -546.650     350.902    -302.931
  H     -539.158     349.968    -299.678
  H     -547.784     351.458    -295.902
  H     -546.259     351.415    -297.852
  H     -546.382     348.653    -300.339
  H     -547.715     351.088    -300.897
  H     -545.950     352.409    -299.822
  H     -543.952     350.515    -301.229
  H     -550.293     348.750    -295.484
  H     -542.837     352.372    -300.198
  H     -549.485     350.049    -294.682
  H     -543.769     352.259    -298.683
  P     -546.255     353.977    -301.962
  C     -548.134     353.466    -303.687
  O     -547.736     353.450    -302.331
  O     -545.710     354.630    -303.323
  O     -546.186     354.929    -300.801
  H     -545.130     355.372    -303.134
  H     -549.032     352.864    -303.801
  H     -547.342     353.075    -304.345
  H     -548.387     354.518    -303.959
  H     -541.806     346.686    -299.753
  H     -541.786     347.835    -298.437
  H     -540.334     347.544    -299.365

 3  4  5  6  7  8  9  10  11  12  13  23  27  28  29  30  32 0
 6-311+G(2d,p)
 ****
 34  35 0
 6-311+G(2d,p)
 ****
 1  2  14  15  16  17  18  19  20  21  22  24  25  26 0
 3-21G
 ****
 31  33  36  37  38  39  40  41  42  43  44  45  46 0
 3-21G
 ****


