%nproc=1
%NoSave
%Mem=1900MB
#P OB98/GEN NMR

erre ene a

0 1
  C       -8.250     635.090      28.830
  O       -8.126     635.073      27.424
  H       -7.930     636.070      29.196
  H       -7.605     634.333      29.281
  H       -9.290     634.926      29.129
  P       -8.491     633.731      26.621
  C       -6.658     634.323      24.920
  O       -8.034     634.012      25.100
  C       -6.455     635.243      23.715
  O       -7.200     636.473      23.904
  C       -4.986     635.628      23.473
  O       -4.656     635.472      22.087
  C       -4.934     637.105      23.842
  O       -3.871     637.803      23.203
  C       -6.352     637.546      23.447
  N       -6.709     638.827      24.042
  C       -6.214     639.962      23.387
  O       -5.536     639.843      22.368
  N       -6.459     641.200      23.930
  C       -7.100     641.290      25.061
  N       -7.287     642.547      25.557
  C       -7.613     640.114      25.797
  C       -7.383     638.927      25.237
  O       -9.902     633.270      26.781
  O       -7.415     632.652      27.111
  H       -3.036     637.603      23.685
  H       -7.772     631.748      26.952
  H       -8.131     640.249      26.732
  H       -7.722     638.002      25.707
  H       -6.456     637.619      22.358
  H       -4.798     637.204      24.929
  H       -4.279     635.041      24.068
  H       -6.885     634.756      22.827
  H       -6.914     643.318      25.018
  H       -6.101     633.388      24.787
  H       -7.740     642.738      26.431
  H       -6.295     634.832      25.821
  P       -3.130     635.120      21.747
  C       -2.706     637.098      20.120
  O       -2.804     635.686      20.280
  O       -3.148     633.529      21.554
  O       -2.175     635.535      22.818
  H       -2.677     633.100      22.299
  H       -2.487     637.327      19.098
  H       -1.924     637.474      20.746
  H       -3.634     637.554      20.396

 6  7  8  9  10  11  12  13  14  15  16  26  30  31  32  33  35 0
 6-311+G(2d,p)
 ****
 37  38 0
 6-311+G(2d,p)
 ****
 1  2  3  4  5  17  18  19  20  21  22  23  24  25 0
 3-21G
 ****
 27  28  29  34  36  39  40  41  42  43  44  45  46 0
 3-21G
 ****


