%nproc=1
%NoSave
%Mem=1900MB
#P OB98/GEN NMR

erre ene a

0 1
  C      972.204     523.265    -101.942
  O      971.202     522.506    -101.291
  H      973.159     522.753    -101.821
  H      972.286     524.257    -101.486
  H      971.989     523.358    -103.011
  P      969.671     522.997    -101.400
  C      968.877     522.690     -98.977
  O      968.847     522.169    -100.295
  C      968.769     521.564     -97.954
  O      967.597     520.760     -98.263
  C      969.976     520.616     -97.935
  O      970.234     520.237     -96.578
  C      969.520     519.417     -98.727
  O      970.198     518.221     -98.352
  C      968.023     519.383     -98.397
  N      966.896     514.882    -100.390
  C      967.639     515.200     -99.275
  N      968.201     514.161     -98.602
  N      967.833     516.416     -98.857
  C      967.211     517.351     -99.618
  C      966.440     517.159    -100.739
  C      966.250     515.808    -101.204
  O      965.612     515.464    -102.187
  N      965.999     518.364    -101.256
  C      966.505     519.269    -100.434
  N      967.256     518.720     -99.437
  O      969.083     522.952    -102.772
  O      969.697     524.484    -100.805
  H      969.807     517.491     -98.868
  H      969.704     525.140    -101.530
  H      966.784     513.916    -100.667
  H      966.367     520.347    -100.537
  H      967.805     518.863     -97.452
  H      969.684     519.584     -99.801
  H      968.079     513.193     -98.857
  H      970.884     521.076     -98.366
  H      968.734     514.378     -97.759
  H      968.599     522.000     -96.957
  H      968.029     523.375     -98.855
  H      969.814     523.247     -98.814
  P      970.793     521.336     -95.554
  C      972.325     520.100     -93.879
  O      971.019     520.622     -94.130
  O      970.032     522.621     -95.511
  O      972.306     521.572     -96.064
  H      972.560     522.489     -95.850
  H      972.350     519.653     -92.907
  H      973.041     520.894     -93.925
  H      972.562     519.362     -94.617

 6  7  8  9  10  11  12  13  14  15  26  29  33  34 0
 6-311+G(2d,p)
 ****
 36  38  39  40  41 0
 6-311+G(2d,p)
 ****
 1  2  3  4  5  16  17  18  19  20  21  22  23  24  25 0
 3-21G
 ****
 27  28  30  31  32  35  37  42  43  44  45  46  47 0
 3-21G
 ****
 48  49 0
 3-21G
 ****


