%nproc=1
%NoSave
%Mem=1900MB
#P OB98/GEN NMR

erre ene a

0 1
  C       71.207    -101.536     -61.640
  O       71.312    -101.733     -60.227
  P       70.971    -103.200     -59.678
  C       68.444    -102.626     -59.854
  O       69.490    -103.172     -59.063
  C       67.088    -102.947     -59.227
  O       66.807    -104.363     -59.257
  C       66.992    -102.551     -57.759
  O       66.842    -101.148     -57.618
  C       65.779    -103.365     -57.322
  O       64.563    -102.716     -57.729
  C       65.963    -104.666     -58.120
  N       65.031    -108.551     -54.925
  C       64.212    -107.663     -55.529
  N       64.539    -106.655     -56.365
  C       65.866    -106.618     -56.569
  C       66.823    -107.459     -56.027
  C       66.361    -108.464     -55.161
  N       67.197    -109.360     -54.535
  N       68.083    -107.109     -56.467
  C       67.891    -106.062     -57.243
  N       66.566    -105.734     -57.345
  O       71.914    -103.342     -58.393
  O       71.224    -104.285     -60.671
  H       64.645    -102.516     -58.684
  H       72.637    -103.970     -58.578
  H       63.154    -107.774     -55.311
  H       68.674    -105.511     -57.748
  H       65.014    -105.049     -58.512
  H       65.726    -103.508     -56.239
  H       67.884    -102.886     -57.217
  H       66.313    -102.426     -59.804
  H       68.487    -103.029     -60.869
  H       66.792    -109.999     -53.869
  H       68.196    -109.250     -54.636
  H       68.594    -101.544     -59.940
  P       68.173    -100.255     -57.586
  C       67.594     -99.520     -55.194
  O       67.827     -99.098     -56.525
  O       68.080     -99.487     -58.983
  O       69.433    -101.010     -57.335
  H       67.186     -99.136     -59.145
  H       67.406     -98.638     -54.577
  H       68.469    -100.047     -54.805
  H       66.717    -100.171     -55.157
  H       71.458    -100.524     -61.879
  H       70.205    -101.739     -61.955
  H       71.880    -102.198     -62.143

 3  4  5  6  7  8  9  10  11  12  22  25  29  30  31  32 0
 6-311+G(2d,p)
 ****
 33  36  37 0
 6-311+G(2d,p)
 ****
 1  2  13  14  15  16  17  18  19  20  21  23  24  26 0
 3-21G
 ****
 27  28  34  35  38  39  40  41  42  43  44  45  46  47  48 0
 3-21G
 ****


