%nproc=1
%NoSave
%Mem=1900MB
#P OB98/GEN NMR

erre ene a

0 1
  C     -385.667     -41.931     259.108
  O     -386.059     -40.565     258.876
  P     -387.409     -40.016     259.552
  C     -388.837     -39.898     257.362
  O     -388.656     -40.467     258.649
  C     -390.171     -40.363     256.761
  O     -390.140     -41.780     256.495
  C     -391.373     -40.153     257.677
  O     -391.795     -38.800     257.696
  C     -392.395     -41.093     257.043
  O     -393.045     -40.474     255.921
  C     -391.498     -42.263     256.577
  N     -391.603     -43.433     257.440
  C     -392.442     -44.455     257.005
  O     -393.113     -44.380     255.981
  N     -392.497     -45.563     257.808
  C     -391.875     -45.716     259.014
  O     -391.985     -46.723     259.701
  C     -391.070     -44.571     259.465
  C     -390.976     -43.498     258.670
  O     -387.325     -38.443     259.231
  O     -387.543     -40.245     261.021
  H     -393.309     -39.580     256.212
  H     -387.803     -37.944     259.917
  H     -393.077     -46.326     257.496
  H     -390.574     -44.638     260.426
  H     -390.385     -42.641     258.989
  H     -391.771     -42.560     255.555
  H     -393.178     -41.395     257.747
  H     -391.138     -40.506     258.686
  H     -390.320     -39.837     255.807
  H     -388.023     -40.215     256.708
  H     -388.814     -38.804     257.450
  P     -391.766     -38.060     259.126
  C     -394.372     -38.082     259.323
  O     -393.128     -38.489     259.850
  O     -391.991     -36.534     258.678
  O     -390.509     -38.305     259.880
  H     -392.568     -36.463     257.898
  H     -394.349     -38.016     258.230
  H     -394.637     -37.103     259.739
  H     -395.134     -38.809     259.619
  H     -384.753     -42.133     258.590
  H     -386.432     -42.587     258.750
  H     -385.525     -42.088     260.157

 3  4  5  6  7  8  9  10  11  12  13  23  28  29  30  31  32 0
 6-311+G(2d,p)
 ****
 33  34 0
 6-311+G(2d,p)
 ****
 1  2  14  15  16  17  18  19  20  21  22  24  25  26 0
 3-21G
 ****
 27  35  36  37  38  39  40  41  42  43  44  45 0
 3-21G
 ****


