%nproc=1
%NoSave
%Mem=1900MB
#P OB98/GEN NMR

erre ene a

0 1
  C     -288.238     557.634      62.326
  O     -286.968     557.237      61.855
  H     -288.377     557.226      63.335
  H     -289.024     557.232      61.682
  H     -288.311     558.726      62.377
  P     -286.445     557.832      60.462
  C     -285.021     559.740      61.460
  O     -285.022     558.507      60.745
  C     -283.653     559.949      62.125
  O     -283.436     558.940      63.137
  C     -282.482     559.844      61.164
  O     -282.350     561.008      60.374
  C     -281.333     559.601      62.146
  O     -280.892     560.840      62.728
  C     -282.005     558.700      63.198
  N     -281.697     557.283      63.025
  C     -280.380     556.894      63.247
  O     -279.494     557.696      63.534
  N     -280.115     555.566      63.078
  C     -280.992     554.613      62.623
  O     -280.671     553.445      62.398
  C     -282.359     555.093      62.382
  C     -282.653     556.378      62.598
  O     -287.418     558.686      59.716
  O     -286.062     556.521      59.616
  H     -280.194     560.614      63.371
  H     -286.752     556.360      58.940
  H     -279.161     555.270      63.218
  H     -283.088     554.357      62.034
  H     -283.659     556.740      62.420
  H     -281.693     558.995      64.209
  H     -280.467     559.145      61.661
  H     -282.589     558.952      60.527
  H     -283.662     560.936      62.621
  H     -285.797     559.698      62.224
  H     -285.234     560.553      60.761
  P     -281.334     561.021      59.140
  C     -282.615     559.569      57.431
  O     -282.203     560.898      57.791
  O     -280.180     560.070      59.241
  O     -280.817     562.536      59.083
  H     -279.852     562.554      59.206
  H     -283.182     559.605      56.525
  H     -283.218     559.158      58.214
  H     -281.751     558.954      57.287

 6  7  8  9  10  11  12  13  14  15  16  26  31  32  33  34  35 0
 6-311+G(2d,p)
 ****
 36  37 0
 6-311+G(2d,p)
 ****
 1  2  3  4  5  17  18  19  20  21  22  23  24  25 0
 3-21G
 ****
 27  28  29  30  38  39  40  41  42  43  44  45 0
 3-21G
 ****


