%nproc=1
%NoSave
%Mem=1900MB
#P OB98/GEN NMR

erre ene a

0 1
  C      -78.214    -255.364    -157.940
  O      -77.112    -254.479    -158.000
  H      -78.792    -255.146    -157.040
  H      -77.862    -256.397    -157.896
  H      -78.856    -255.227    -158.816
  P      -76.156    -254.612    -159.280
  C      -77.654    -252.904    -160.561
  O      -76.350    -253.257    -160.118
  C      -77.710    -251.407    -160.896
  O      -77.955    -250.664    -159.664
  C      -76.406    -250.861    -161.498
  O      -76.732    -249.772    -162.379
  C      -75.702    -250.315    -160.268
  O      -74.666    -249.437    -160.640
  C      -76.892    -249.697    -159.543
  N      -74.014    -246.934    -156.365
  C      -74.114    -246.944    -157.712
  N      -74.916    -247.706    -158.488
  C      -75.686    -248.504    -157.727
  C      -75.692    -248.607    -156.347
  C      -74.798    -247.776    -155.653
  N      -74.674    -247.778    -154.282
  N      -76.607    -249.563    -155.935
  C      -77.144    -250.020    -157.048
  N      -76.618    -249.408    -158.153
  O      -76.893    -255.719    -160.172
  O      -74.739    -254.976    -158.994
  H      -74.998    -248.729    -161.230
  H      -76.535    -256.604    -159.967
  H      -73.467    -246.250    -158.241
  H      -77.900    -250.792    -157.116
  H      -77.229    -248.764    -160.013
  H      -75.254    -251.121    -159.680
  H      -75.831    -251.614    -162.043
  H      -78.567    -251.218    -161.555
  H      -78.368    -253.136    -159.767
  H      -77.902    -253.484    -161.454
  H      -73.987    -247.169    -153.865
  H      -75.225    -248.423    -153.737
  P      -76.249    -249.834    -163.911
  C      -78.747    -250.055    -164.631
  O      -77.468    -249.501    -164.900
  O      -76.052    -251.411    -164.133
  O      -74.975    -249.111    -164.212
  H      -75.206    -251.576    -164.590
  H      -79.439    -249.735    -165.382
  H      -79.084    -249.724    -163.671
  H      -78.682    -251.123    -164.638

 6  7  8  9  10  11  12  13  14  15  25  28  32  33  34  35 0
 6-311+G(2d,p)
 ****
 36  37  40 0
 6-311+G(2d,p)
 ****
 1  2  3  4  5  16  17  18  19  20  21  22  23  24 0
 3-21G
 ****
 26  27  29  30  31  38  39 41  42  43  44  45  46  47  48 0
 3-21G
 ****


