%nproc=1
%NoSave
%Mem=1900MB
#P OB98/GEN NMR

erre ene a

0 1
  C     -185.468    -331.579    -170.137
  O     -184.159    -331.448    -169.622
  H     -185.787    -332.619    -170.020
  H     -185.492    -331.324    -171.199
  H     -186.161    -330.939    -169.583
  P     -183.428    -330.026    -169.733
  C     -183.067    -328.372    -171.682
  O     -183.216    -329.736    -171.298
  C     -182.442    -328.282    -173.077
  O     -181.084    -328.783    -172.987
  C     -183.197    -329.125    -174.117
  O     -183.568    -328.384    -175.278
  C     -182.291    -330.335    -174.312
  O     -182.414    -330.968    -175.568
  C     -180.895    -329.774    -174.014
  N     -179.931    -330.784    -173.583
  C     -179.097    -331.325    -174.558
  O     -179.091    -331.003    -175.744
  N     -178.217    -332.282    -174.118
  C     -178.102    -332.746    -172.842
  O     -177.291    -333.599    -172.506
  C     -179.026    -332.150    -171.862
  C     -179.885    -331.213    -172.271
  O     -182.204    -329.861    -168.896
  O     -184.564    -328.974    -169.324
  H     -181.705    -331.638    -175.636
  H     -184.414    -328.672    -168.410
  H     -177.602    -332.675    -174.814
  H     -178.970    -332.499    -170.842
  H     -180.580    -330.751    -171.574
  H     -180.486    -329.277    -174.893
  H     -182.547    -331.082    -173.551
  H     -184.161    -329.465    -173.717
  H     -182.385    -327.228    -173.373
  H     -182.424    -327.882    -170.945
  H     -184.047    -327.881    -171.683
  P     -184.991    -327.696    -175.499
  C     -187.298    -328.420    -176.519
  O     -185.972    -328.779    -176.153
  O     -184.964    -326.344    -176.126
  O     -185.561    -327.525    -173.998
  H     -186.102    -326.712    -173.996
  H     -187.795    -329.270    -176.936
  H     -187.267    -327.634    -177.244
  H     -187.829    -328.086    -175.652

 6  7  8  9  10  11  12  13  14  15  16  26  31  32  33  34  35 0
 6-311+G(2d,p)
 ****
 36  37 0
 6-311+G(2d,p)
 ****
 1  2  3  4  5  17  18  19  20  21  22  23  24  25 0
 3-21G
 ****
 27  28  29  30  38  39  40  41  42  43  44  45 0
 3-21G
 ****


