%nproc=1
%NoSave
%Mem=1900MB
#P OB98/GEN NMR

erre ene a

0 1
  C        2.334    -571.466     402.333
  O        3.741    -571.427     402.337
  H        1.948    -570.489     402.632
  H        1.976    -572.214     403.046
  H        1.954    -571.697     401.334
  P        4.524    -572.710     401.773
  C        5.686    -571.385     399.860
  O        4.787    -572.435     400.206
  C        5.809    -571.288     398.340
  O        4.555    -570.818     397.779
  C        6.916    -570.325     397.877
  O        7.558    -570.887     396.724
  C        6.157    -569.068     397.478
  O        6.861    -568.277     396.529
  C        4.833    -569.666     396.971
  N        3.754    -568.679     397.043
  C        3.395    -568.044     395.842
  O        3.986    -568.317     394.804
  N        2.414    -567.091     395.863
  C        1.899    -566.725     397.005
  N        0.964    -565.735     396.967
  C        2.299    -567.306     398.299
  C        3.216    -568.277     398.249
  O        3.404    -573.853     401.754
  O        5.735    -573.113     402.544
  H        7.786    -568.154     396.854
  H        3.788    -574.731     401.917
  H        1.866    -566.949     399.224
  H        3.570    -568.766     399.144
  H        4.932    -570.001     395.938
  H        5.986    -568.450     398.368
  H        7.670    -570.130     398.651
  H        5.984    -572.295     397.935
  H        0.722    -565.339     396.061
  H        6.677    -571.602     400.284
  H        0.526    -565.340     397.792
  H        5.319    -570.437     400.277
  P        8.837    -571.821     396.981
  C        7.671    -574.031     396.262
  O        8.313    -573.304     397.296
  O        9.387    -571.297     398.394
  O        9.882    -571.725     395.907
  H       10.215    -570.809     398.274
  H        7.383    -574.994     396.629
  H        8.344    -574.149     395.438
  H        6.801    -573.498     395.938

 6  7  8  9  10  11  12  13  14  15  16  26  30  31  32  33  35 0
 6-311+G(2d,p)
 ****
 37  38 0
 6-311+G(2d,p)
 ****
 1  2  3  4  5  17  18  19  20  21  22  23  24  25 0
 3-21G
 ****
 27  28  29  34  36  39  40  41  42  43  44  45  46 0
 3-21G
 ****


