%nproc=1
%NoSave
%Mem=1900MB
#P OB98/GEN NMR

erre ene a

0 1
  C      188.497    -292.870    -301.100
  O      189.641    -293.128    -301.887
  H      187.946    -292.034    -301.538
  H      188.794    -292.601    -300.083
  H      187.848    -293.752    -301.076
  P      190.597    -294.325    -301.410
  C      192.762    -294.437    -299.982
  O      191.604    -293.686    -300.331
  C      193.846    -293.512    -299.425
  O      194.107    -292.454    -300.388
  C      193.470    -292.845    -298.092
  O      194.640    -292.772    -297.268
  C      193.075    -291.440    -298.512
  O      193.192    -290.508    -297.446
  C      194.044    -291.209    -299.668
  N      195.195    -286.546    -301.177
  C      195.862    -287.403    -300.328
  N      197.013    -286.951    -299.788
  N      195.436    -288.600    -300.024
  C      194.284    -288.934    -300.655
  C      193.517    -288.172    -301.507
  C      193.991    -286.840    -301.815
  O      193.426    -286.027    -302.543
  N      192.397    -288.857    -301.906
  C      192.484    -290.030    -301.296
  N      193.615    -290.119    -300.532
  O      191.538    -294.581    -302.682
  O      189.902    -295.567    -300.962
  H      192.508    -290.729    -296.776
  H      191.815    -295.517    -302.726
  H      195.557    -285.625    -301.368
  H      191.766    -290.834    -301.378
  H      195.057    -290.961    -299.324
  H      192.037    -291.434    -298.867
  H      197.420    -286.048    -300.000
  H      192.673    -293.362    -297.554
  H      197.533    -287.566    -299.172
  H      194.776    -294.088    -299.330
  H      193.138    -294.945    -300.876
  H      192.489    -295.186    -299.231
  P      194.663    -293.661    -295.934
  C      193.932    -293.400    -293.457
  O      193.895    -292.863    -294.771
  O      196.204    -293.588    -295.482
  O      194.232    -295.076    -296.140
  H      196.635    -294.448    -295.640
  H      193.381    -292.764    -292.796
  H      194.948    -293.464    -293.126
  H      193.495    -294.377    -293.459

 6  7  8  9  10  11  12  13  14  15  26  29  33  34 0
 6-311+G(2d,p)
 ****
 36  38  39  40  41 0
 6-311+G(2d,p)
 ****
 1  2  3  4  5  16  17  18  19  20  21  22  23  24  25 0
 3-21G
 ****
 27  28  30  31  32  35  37  42  43  44  45  46  47 0
 3-21G
 ****
 48  49 0
 3-21G
 ****


