%nproc=1
%NoSave
%Mem=1900MB
#P OB98/GEN NMR

erre ene a

0 1
  C     -224.448      10.700     287.640
  O     -223.639      10.811     286.485
  H     -224.339       9.692     288.051
  H     -225.498      10.862     287.376
  H     -224.136      11.430     288.396
  P     -223.516      12.262     285.820
  C     -225.316      13.994     285.012
  O     -224.965      12.634     285.223
  C     -226.823      14.109     284.785
  O     -227.561      13.774     285.973
  C     -227.290      15.518     284.453
  O     -226.908      15.932     283.161
  C     -228.794      15.359     284.630
  O     -229.386      14.724     283.487
  C     -228.858      14.429     285.867
  N     -229.205      15.139     287.090
  C     -230.573      15.217     287.377
  O     -231.400      14.696     286.625
  N     -230.971      15.916     288.493
  C     -230.083      16.458     289.264
  N     -230.538      17.140     290.349
  C     -228.630      16.375     289.012
  C     -228.267      15.714     287.914
  O     -222.654      11.972     284.503
  O     -222.956      13.325     286.707
  H     -230.355      14.775     283.618
  H     -223.024      11.268     283.945
  H     -227.928      16.840     289.693
  H     -227.222      15.607     287.656
  H     -229.596      13.631     285.711
  H     -229.297      16.319     284.759
  H     -226.934      16.224     285.215
  H     -227.102      13.398     283.993
  H     -231.546      17.193     290.480
  H     -224.764      14.416     284.169
  H     -229.946      17.633     291.003
  H     -225.029      14.551     285.908
  P     -227.337      17.376     282.606
  C     -229.711      18.325     282.301
  O     -228.841      17.218     282.068
  O     -226.388      17.991     281.634
  O     -227.547      18.237     283.946
  H     -228.223      17.888     284.551
  H     -230.680      18.108     281.902
  H     -229.315      19.196     281.822
  H     -229.790      18.501     283.353

 6  7  8  9  10  11  12  13  14  15  16  26  30  31  32  33  35 0
 6-311+G(2d,p)
 ****
 37  38 0
 6-311+G(2d,p)
 ****
 1  2  3  4  5  17  18  19  20  21  22  23  24  25 0
 3-21G
 ****
 27  28  29  34  36  39  40  41  42  43  44  45  46 0
 3-21G
 ****


