%nproc=1
%NoSave
%Mem=1900MB
#P OB98/GEN NMR

erre ene a

0 1
  C       23.981      20.134    -278.458
  O       24.943      19.410    -279.197
  H       24.202      20.028    -277.393
  H       22.984      19.728    -278.651
  H       24.009      21.195    -278.720
  P       24.922      19.601    -280.789
  C       23.578      17.402    -281.102
  O       23.636      18.803    -281.327
  C       22.158      16.986    -280.729
  O       21.634      17.853    -279.697
  C       21.163      17.051    -281.882
  O       21.224      15.889    -282.699
  C       19.850      17.113    -281.116
  O       19.510      15.800    -280.625
  C       20.213      18.041    -279.949
  N       17.318      22.026    -278.757
  C       17.274      20.727    -278.290
  N       16.313      20.445    -277.382
  N       18.092      19.784    -278.681
  C       18.993      20.207    -279.601
  C       19.137      21.467    -280.137
  C       18.232      22.500    -279.691
  O       18.242      23.673    -280.055
  N       20.172      21.513    -281.034
  C       20.640      20.282    -281.056
  N       19.955      19.447    -280.208
  O       26.150      18.698    -281.289
  O       25.054      21.007    -281.268
  H       19.190      15.288    -281.390
  H       26.572      19.136    -282.053
  H       16.657      22.712    -278.432
  H       21.470      19.944    -281.662
  H       19.679      17.780    -279.028
  H       19.018      17.448    -281.735
  H       15.621      21.111    -277.077
  H       21.286      17.967    -282.472
  H       16.282      19.507    -277.002
  H       22.201      15.972    -280.313
  H       24.257      17.139    -280.285
  H       23.896      16.882    -282.012
  P       21.784      16.060    -284.196
  C       19.435      15.241    -284.941
  O       20.485      16.182    -285.130
  O       22.350      14.602    -284.538
  O       22.819      17.119    -284.364
  H       23.023      14.662    -285.242
  H       18.643      15.447    -285.630
  H       19.065      15.316    -283.940
  H       19.807      14.252    -285.111

 6  7  8  9  10  11  12  13  14  15  26  29  33  34 0
 6-311+G(2d,p)
 ****
 36  38  39  40  41 0
 6-311+G(2d,p)
 ****
 1  2  3  4  5  16  17  18  19  20  21  22  23  24  25 0
 3-21G
 ****
 27  28  30  31  32  35  37  42  43  44  45  46  47 0
 3-21G
 ****
 48  49 0
 3-21G
 ****


