%nproc=1
%NoSave
%Mem=1900MB
#P OB98/GEN NMR

erre ene a

0 1
  C     -402.392     537.370    -189.725
  O     -401.157     537.940    -190.119
  H     -402.679     536.623    -190.470
  H     -403.161     538.144    -189.690
  H     -402.298     536.887    -188.752
  P     -400.564     539.085    -189.159
  C     -401.211     541.550    -188.642
  O     -401.461     540.398    -189.431
  C     -401.086     542.785    -189.531
  O     -402.266     542.951    -190.322
  C     -400.884     544.096    -188.764
  O     -399.516     544.267    -188.408
  C     -401.352     545.113    -189.783
  O     -400.322     545.397    -190.766
  C     -402.546     544.382    -190.438
  N     -407.495     544.903    -191.290
  C     -406.486     544.533    -192.150
  N     -406.822     544.333    -193.440
  N     -405.236     544.407    -191.780
  C     -405.031     544.665    -190.463
  C     -405.970     545.021    -189.512
  C     -407.346     545.146    -189.926
  O     -408.304     545.393    -189.203
  N     -405.372     545.194    -188.282
  C     -404.094     544.987    -188.500
  N     -403.827     544.679    -189.809
  O     -399.163     539.464    -189.853
  O     -400.393     538.708    -187.732
  H     -399.612     545.885    -190.340
  H     -398.535     539.743    -189.164
  H     -408.441     544.973    -191.641
  H     -403.316     545.045    -187.752
  H     -402.647     544.618    -191.494
  H     -401.614     546.065    -189.313
  H     -407.659     544.740    -193.839
  H     -401.522     544.119    -187.870
  H     -406.075     544.095    -194.085
  H     -400.242     542.614    -190.208
  H     -400.281     541.401    -188.080
  H     -402.031     541.677    -187.920
  P     -399.196     545.055    -187.029
  C     -398.859     547.541    -186.386
  O     -398.984     546.580    -187.425
  O     -397.720     544.551    -186.656
  O     -400.181     544.793    -185.927
  H     -397.539     544.745    -185.718
  H     -398.723     548.513    -186.813
  H     -398.015     547.298    -185.775
  H     -399.746     547.536    -185.787

 6  7  8  9  10  11  12  13  14  15  26  29  33  34 0
 6-311+G(2d,p)
 ****
 36  38  39  40  41 0
 6-311+G(2d,p)
 ****
 1  2  3  4  5  16  17  18  19  20  21  22  23  24  25 0
 3-21G
 ****
 27  28  30  31  32  35  37  42  43  44  45  46  47 0
 3-21G
 ****
 48  49 0
 3-21G
 ****


