%nproc=1
%NoSave
%Mem=1900MB
#P OB98/GEN NMR

erre ene a

0 1
  C       56.859     -66.334    -240.319
  O       57.853     -65.664    -239.571
  H       56.590     -67.266    -239.818
  H       55.972     -65.697    -240.376
  H       57.209     -66.542    -241.334
  P       59.336     -66.273    -239.610
  C       60.095     -66.151    -237.131
  O       60.149     -65.560    -238.421
  C       60.743     -65.234    -236.095
  O       59.759     -64.250    -235.667
  C       61.258     -65.960    -234.842
  O       62.490     -65.353    -234.440
  C       60.194     -65.654    -233.802
  O       60.693     -65.715    -232.471
  C       59.753     -64.257    -234.229
  N       57.253     -62.812    -230.046
  C       58.562     -62.776    -230.371
  N       59.140     -63.134    -231.535
  C       58.212     -63.497    -232.436
  C       56.842     -63.577    -232.253
  C       56.364     -63.227    -230.978
  N       55.041     -63.323    -230.615
  N       56.230     -64.048    -233.398
  C       57.215     -64.272    -234.245
  N       58.432     -63.956    -233.708
  O       59.946     -65.607    -240.933
  O       59.420     -67.761    -239.643
  H       59.940     -65.682    -231.849
  H       59.734     -66.162    -241.705
  H       59.235     -62.427    -229.592
  H       57.108     -64.687    -235.238
  H       60.434     -63.473    -233.876
  H       59.373     -66.374    -233.897
  H       61.406     -67.036    -234.984
  H       61.557     -64.682    -236.581
  H       60.638     -67.103    -237.150
  H       54.806     -63.155    -229.648
  H       54.385     -63.735    -231.262
  H       59.052     -66.348    -236.866
  P       63.814     -66.251    -234.513
  C       64.492     -66.981    -232.107
  O       64.649     -66.040    -233.164
  O       64.703     -65.508    -235.618
  O       63.559     -67.678    -234.882
  H       65.236     -66.153    -236.114
  H       65.114     -66.699    -231.283
  H       64.775     -67.954    -232.451
  H       63.469     -66.997    -231.793

 6  7  8  9  10  11  12  13  14  15  25  28  32  33  34  35 0
 6-311+G(2d,p)
 ****
 36  39  40 0
 6-311+G(2d,p)
 ****
 1  2  3  4  5  16  17  18  19  20  21  22  23  24 0
 3-21G
 ****
 26  27  29  30  31  37  38  41  42  43  44  45  46  47 0
 3-21G
 ****
 48 0
 3-21G
 ****


