%nproc=1
%NoSave
%Mem=1900MB
#P OB98/GEN NMR

erre ene a

0 1
  C      112.215    -166.471     431.642
  O      111.703    -165.487     432.516
  H      112.459    -165.997     430.686
  H      111.464    -167.245     431.462
  H      113.123    -166.920     432.050
  P      111.409    -165.886     434.039
  C      112.098    -163.796     435.379
  O      112.467    -165.097     434.944
  C      113.316    -162.871     435.338
  O      113.866    -162.831     434.002
  C      113.005    -161.423     435.697
  O      112.843    -161.266     437.094
  C      114.213    -160.714     435.112
  O      115.342    -160.810     435.995
  C      114.453    -161.523     433.817
  N      113.912    -160.865     432.629
  C      114.616    -159.761     432.154
  O      115.625    -159.318     432.703
  N      114.102    -159.163     431.038
  C      112.923    -159.476     430.428
  O      112.461    -158.848     429.483
  C      112.208    -160.634     430.986
  C      112.728    -161.265     432.041
  O      111.307    -167.349     434.316
  O      110.029    -165.134     434.366
  H      116.038    -160.239     435.618
  H      109.301    -165.782     434.375
  H      114.592    -158.354     430.686
  H      111.274    -160.923     430.522
  H      112.209    -162.117     432.471
  H      115.527    -161.682     433.661
  H      114.028    -159.656     434.942
  H      112.104    -161.090     435.168
  H      114.084    -163.282     436.006
  H      111.728    -163.860     436.407
  H      111.300    -163.417     434.734
  P      111.430    -160.810     437.689
  C      111.511    -162.476     439.646
  O      110.804    -162.056     438.482
  O      110.508    -160.155     436.715
  O      111.823    -159.798     438.867
  H      111.443    -158.918     438.678
  H      111.005    -163.308     440.090
  H      111.554    -161.669     440.348
  H      112.505    -162.766     439.375

 6  7  8  9  10  11  12  13  14  15  16  26  31  32  33  34  35 0
 6-311+G(2d,p)
 ****
 36  37 0
 6-311+G(2d,p)
 ****
 1  2  3  4  5  17  18  19  20  21  22  23  24  25 0
 3-21G
 ****
 27  28  29  30  38  39  40  41  42  43  44  45 0
 3-21G
 ****


