%nproc=1
%NoSave
%Mem=1900MB
#P OB98/GEN NMR

erre ene a

0 1
  C     -169.354     110.144    -173.961
  O     -168.316     111.100    -173.909
  H     -170.133     110.505    -174.636
  H     -169.785     110.022    -172.964
  H     -168.984     109.183    -174.328
  P     -166.908     110.624    -173.308
  C     -165.731     112.306    -171.720
  O     -166.041     111.953    -173.060
  C     -164.659     113.395    -171.690
  O     -163.424     112.846    -172.242
  C     -165.016     114.652    -172.501
  O     -164.509     115.804    -171.815
  C     -164.213     114.468    -173.776
  O     -163.959     115.700    -174.439
  C     -162.962     113.790    -173.226
  N     -158.399     113.571    -175.303
  C     -158.824     114.162    -174.130
  N     -157.907     114.857    -173.425
  N     -160.050     114.083    -173.685
  C     -160.862     113.342    -174.477
  C     -160.567     112.711    -175.660
  C     -159.209     112.820    -176.152
  O     -158.778     112.338    -177.194
  N     -161.683     112.114    -176.191
  C     -162.653     112.402    -175.339
  N     -162.203     113.147    -174.284
  O     -166.200     109.943    -174.573
  O     -166.991     109.690    -172.147
  H     -163.409     115.517    -175.227
  H     -166.359     108.981    -174.562
  H     -157.448     113.676    -175.609
  H     -163.688     112.117    -175.450
  H     -162.283     114.497    -172.732
  H     -164.750     113.806    -174.465
  H     -156.937     114.937    -173.686
  H     -166.088     114.772    -172.685
  H     -158.194     115.262    -172.542
  H     -164.453     113.656    -170.644
  H     -165.357     111.423    -171.192
  H     -166.641     112.654    -171.220
  P     -165.311     116.328    -170.531
  C     -165.755     118.893    -170.473
  O     -164.847     117.832    -170.216
  O     -164.663     115.487    -169.332
  O     -166.787     116.120    -170.611
  H     -165.342     115.292    -168.661
  H     -165.298     119.825    -170.212
  H     -166.640     118.754    -169.889
  H     -166.011     118.900    -171.512

 6  7  8  9  10  11  12  13  14  15  26  29  33  34 0
 6-311+G(2d,p)
 ****
 36  38  39  40  41 0
 6-311+G(2d,p)
 ****
 1  2  3  4  5  16  17  18  19  20  21  22  23  24  25 0
 3-21G
 ****
 27  28  30  31  32  35  37  42  43  44  45  46  47 0
 3-21G
 ****
 48  49 0
 3-21G
 ****


