%nproc=1
%NoSave
%Mem=1900MB
#P OB98/GEN NMR

erre ene a

0 1
  C       -4.026      21.272      49.984
  O       -4.017      22.159      51.085
  H       -3.305      21.624      49.243
  H       -5.019      21.249      49.527
  H       -3.742      20.266      50.305
  P       -5.000      21.804      52.302
  C       -3.538      22.403      54.367
  O       -4.064      21.379      53.532
  C       -2.031      22.218      54.520
  O       -1.394      22.300      53.224
  C       -1.363      23.289      55.370
  O       -1.545      23.073      56.757
  C        0.084      23.159      54.920
  O        0.756      22.104      55.617
  C       -0.057      22.810      53.434
  N        2.914      24.680      49.729
  C        2.866      23.466      50.322
  N        2.034      23.043      51.297
  C        1.165      24.011      51.630
  C        1.091      25.293      51.112
  C        2.020      25.621      50.110
  N        2.085      26.862      49.524
  N        0.092      26.012      51.737
  C       -0.434      25.180      52.611
  N        0.180      23.957      52.580
  O       -5.668      20.426      51.837
  O       -6.025      22.842      52.611
  H        0.376      21.268      55.282
  H       -6.557      20.601      51.474
  H        3.601      22.745      49.976
  H       -1.246      25.414      53.288
  H        0.642      22.024      53.124
  H        0.633      24.082      55.104
  H       -1.732      24.282      55.083
  H       -1.840      21.218      54.931
  H       -4.011      22.345      55.353
  H       -3.764      23.376      53.919
  H        2.821      27.047      48.862
  H        1.499      27.605      49.882
  P       -2.709      23.893      57.493
  C       -4.345      21.940      58.048
  O       -4.076      23.092      57.259
  O       -2.878      25.208      56.594
  O       -2.424      24.229      58.918
  H       -3.092      25.972      57.163
  H       -5.291      21.528      57.766
  H       -4.369      22.214      59.082
  H       -3.577      21.212      57.889

 6  7  8  9  10  11  12  13  14  15  25  28  32  33  34  35 0
 6-311+G(2d,p)
 ****
 36  37  40 0
 6-311+G(2d,p)
 ****
 1  2  3  4  5  16  17  18  19  20  21  22  23  24 0
 3-21G
 ****
 26  27  29  30  31  38  39 41  42  43  44  45  46  47  48 0
 3-21G
 ****


