%nproc=1
%NoSave
%Mem=1900MB
#P OB98/GEN NMR

erre ene a

0 1
  C      286.800    -261.974     -94.834
  O      286.673    -261.196     -93.662
  H      287.579    -262.729     -94.702
  H      285.851    -262.477     -95.032
  H      287.045    -261.335     -95.687
  P      287.977    -260.402     -93.172
  C      289.373    -258.869     -94.728
  O      288.115    -259.105     -94.113
  C      289.460    -257.419     -95.200
  O      288.459    -257.212     -96.228
  C      289.234    -256.372     -94.096
  O      290.366    -255.503     -93.998
  C      288.045    -255.559     -94.583
  O      288.181    -254.159     -94.338
  C      287.992    -255.865     -96.075
  N      284.677    -252.560     -98.090
  C      286.026    -252.543     -98.021
  N      286.855    -253.504     -97.568
  C      286.161    -254.585     -97.177
  C      284.789    -254.762     -97.208
  C      284.029    -253.674     -97.676
  N      282.652    -253.672     -97.693
  N      284.441    -256.006     -96.716
  C      285.582    -256.555     -96.353
  N      286.646    -255.726     -96.595
  O      289.180    -261.343     -93.654
  O      288.042    -260.130     -91.707
  H      289.097    -253.921     -94.575
  H      289.813    -261.467     -92.921
  H      286.503    -251.630     -98.371
  H      285.692    -257.521     -95.874
  H      288.655    -255.211     -96.657
  H      287.139    -255.910     -94.074
  H      289.028    -256.825     -93.118
  H      290.438    -257.268     -95.670
  H      289.488    -259.530     -95.594
  H      282.188    -252.809     -97.931
  H      282.160    -254.455     -97.282
  H      290.171    -259.092     -94.011
  P      290.906    -255.184     -92.516
  C      291.546    -256.652     -90.461
  O      291.383    -256.576     -91.872
  O      289.561    -254.850     -91.711
  O      291.889    -254.068     -92.455
  H      289.760    -254.255     -90.964
  H      291.865    -257.637     -90.191
  H      290.614    -256.435     -89.982
  H      292.282    -255.941     -90.148

 6  7  8  9  10  11  12  13  14  15  25  28  32  33  34  35 0
 6-311+G(2d,p)
 ****
 36  39  40 0
 6-311+G(2d,p)
 ****
 1  2  3  4  5  16  17  18  19  20  21  22  23  24 0
 3-21G
 ****
 26  27  29  30  31  37  38  41  42  43  44  45  46  47  48 0
 3-21G
 ****


