%nproc=1
%NoSave
%Mem=1900MB
#P OB98/GEN NMR

erre ene a

0 1
  C     -184.882    -348.035     212.718
  O     -186.277    -348.357     212.740
  P     -187.045    -348.312     214.139
  C     -188.599    -346.382     213.416
  O     -187.639    -346.834     214.366
  C     -188.945    -344.906     213.667
  O     -187.803    -344.080     213.277
  C     -190.131    -344.368     212.849
  O     -191.437    -344.493     213.402
  C     -189.816    -342.875     212.803
  O     -190.273    -342.237     214.017
  C     -188.291    -342.833     212.745
  N     -188.106    -339.609     208.772
  C     -188.689    -339.519     209.978
  N     -188.703    -340.415     210.983
  C     -187.991    -341.509     210.647
  C     -187.326    -341.743     209.449
  C     -187.405    -340.729     208.482
  N     -186.806    -340.823     207.240
  N     -186.711    -342.976     209.470
  C     -187.015    -343.495     210.646
  N     -187.769    -342.632     211.404
  O     -186.317    -348.893     215.307
  O     -188.373    -349.162     213.830
  H     -189.944    -342.778     214.752
  H     -188.600    -349.691     214.625
  H     -189.248    -338.590     210.167
  H     -186.707    -344.464     210.994
  H     -187.876    -342.030     213.367
  H     -190.317    -342.369     211.970
  H     -190.118    -344.781     211.830
  H     -189.128    -344.748     214.732
  H     -189.503    -346.986     213.491
  H     -186.950    -340.077     206.585
  H     -186.326    -341.682     206.992
  H     -188.177    -346.554     212.418
  P     -192.415    -345.701     212.989
  C     -192.041    -346.958     215.251
  O     -191.924    -346.961     213.847
  O     -192.517    -345.944     211.522
  O     -193.783    -345.289     213.707
  H     -193.761    -345.330     214.667
  H     -191.859    -347.975     215.620
  H     -193.043    -346.644     215.560
  H     -191.294    -346.287     215.690
  H     -184.514    -348.110     211.716
  H     -184.348    -348.718     213.346
  H     -184.741    -347.037     213.076

 3  4  5  6  7  8  9  10  11  12  22  25  29  30  31  32 0
 6-311+G(2d,p)
 ****
 33  36  37 0
 6-311+G(2d,p)
 ****
 1  2  13  14  15  16  17  18  19  20  21  23  24  26 0
 3-21G
 ****
 27  28  34  35  38  39  40  41  42  43  44  45  46  47  48 0
 3-21G
 ****


