%nproc=1
%NoSave
%Mem=1900MB
#P OB98/GEN NMR

erre ene a

0 1
  C       50.247     -32.250      -3.507
  O       50.256     -31.169      -2.594
  H       50.032     -31.862      -4.505
  H       49.473     -32.973      -3.237
  H       51.224     -32.740      -3.526
  P       50.509     -31.481      -1.045
  C       47.960     -31.706      -0.691
  O       49.235     -32.318      -0.544
  C       47.049     -32.097       0.468
  O       46.795     -33.514       0.454
  C       47.618     -31.776       1.850
  O       47.408     -30.412       2.173
  C       46.792     -32.714       2.714
  O       45.471     -32.167       2.897
  C       46.720     -33.974       1.832
  N       49.205     -36.756       5.271
  C       48.251     -35.774       5.449
  N       47.936     -35.469       6.726
  N       47.667     -35.140       4.466
  C       48.131     -35.499       3.247
  C       49.084     -36.444       2.944
  C       49.674     -37.186       4.039
  O       50.506     -38.082       3.922
  N       49.361     -36.467       1.601
  C       48.538     -35.573       1.087
  N       47.774     -34.950       2.047
  O       50.836     -30.300      -0.181
  O       51.682     -32.568      -1.047
  H       45.564     -31.197       2.922
  H       52.557     -32.142      -0.978
  H       49.626     -37.205       6.067
  H       48.450     -35.341       0.033
  H       45.769     -34.505       1.950
  H       47.219     -32.863       3.706
  H       48.455     -35.812       7.521
  H       48.672     -32.060       1.925
  H       47.282     -34.711       6.877
  H       46.083     -31.597       0.318
  H       47.538     -32.049      -1.641
  H       48.061     -30.617      -0.727
  P       48.560     -29.524       2.856
  C       47.602     -30.303       5.129
  O       48.756     -30.141       4.323
  O       48.319     -28.055       2.825
  O       49.901     -29.984       2.121
  H       50.061     -29.500       1.273
  H       47.882     -30.722       6.073
  H       46.913     -30.959       4.638
  H       47.139     -29.351       5.284

 6  7  8  9  10  11  12  13  14  15  26  29  33  34 0
 6-311+G(2d,p)
 ****
 36  38  39  40  41 0
 6-311+G(2d,p)
 ****
 1  2  3  4  5  16  17  18  19  20  21  22  23  24  25 0
 3-21G
 ****
 27  28  30  31  32  35  37  42  43  44  45  46  47 0
 3-21G
 ****
 48  49 0
 3-21G
 ****


