%nproc=1
%NoSave
%Mem=1900MB
#P OB98/GEN NMR

erre ene a

0 1
  C     -916.107     571.924     842.246
  O     -914.863     572.555     842.485
  P     -913.894     572.031     843.657
  C     -911.356     572.181     844.084
  O     -912.398     572.268     843.115
  C     -910.035     572.728     843.485
  O     -909.536     571.836     842.474
  C     -910.148     574.101     842.837
  O     -910.210     575.114     843.824
  C     -908.914     574.120     841.977
  O     -907.766     574.498     842.729
  C     -908.801     572.636     841.527
  N     -909.279     572.442     840.154
  C     -908.299     572.505     839.147
  O     -907.123     572.748     839.445
  N     -908.683     572.337     837.836
  C     -909.925     572.161     837.554
  N     -910.247     571.995     836.240
  C     -910.991     572.109     838.566
  C     -910.596     572.264     839.814
  O     -914.188     570.645     844.148
  O     -914.058     573.154     844.778
  H     -906.988     574.396     842.131
  H     -914.917     573.078     845.252
  H     -912.020     571.952     838.279
  H     -911.320     572.247     840.666
  H     -907.768     572.303     841.564
  H     -909.005     574.825     841.122
  H     -911.054     574.132     842.188
  H     -909.298     572.761     844.308
  H     -909.491     572.069     835.567
  H     -911.228     571.130     844.345
  H     -911.196     571.893     835.896
  H     -911.640     572.752     844.977
  P     -910.507     576.634     843.380
  C     -911.861     578.621     844.305
  O     -911.282     577.344     844.587
  O     -911.123     576.807     842.030
  O     -909.052     577.326     843.447
  H     -908.942     577.877     842.637
  H     -912.610     578.835     845.074
  H     -912.312     578.644     843.324
  H     -911.068     579.372     844.367
  H     -916.604     572.411     841.433
  H     -916.714     571.988     843.125
  H     -915.944     570.896     841.999

 3  4  5  6  7  8  9  10  11  12  13  23  27  28  29  30  32 0
 6-311+G(2d,p)
 ****
 34  35 0
 6-311+G(2d,p)
 ****
 1  2  14  15  16  17  18  19  20  21  22  24  25  26 0
 3-21G
 ****
 31  33  36  37  38  39  40  41  42  43  44  45  46 0
 3-21G
 ****


