%nproc=1
%NoSave
%Mem=1900MB
#P OB98/GEN NMR

erre ene a

0 1
  C      364.686     -91.006     -36.232
  O      365.463     -91.352     -35.102
  H      364.592     -91.885     -36.875
  H      365.177     -90.207     -36.793
  H      363.688     -90.686     -35.922
  P      365.705     -90.193     -34.021
  C      363.668     -90.643     -32.458
  O      365.072     -90.728     -32.649
  C      363.338     -90.507     -30.967
  O      361.984     -89.980     -30.835
  C      363.373     -91.837     -30.198
  O      363.722     -91.549     -28.834
  C      361.919     -92.273     -30.269
  O      361.656     -93.310     -29.352
  C      361.241     -90.927     -30.036
  N      356.459     -90.476     -28.286
  C      357.654     -90.381     -27.668
  N      358.886     -90.501     -28.201
  C      358.811     -90.722     -29.525
  C      357.666     -90.834     -30.295
  C      356.440     -90.705     -29.620
  N      355.220     -90.809     -30.247
  N      357.990     -91.066     -31.620
  C      359.307     -91.092     -31.645
  N      359.845     -90.897     -30.404
  O      364.694     -89.041     -34.484
  O      367.107     -89.696     -33.915
  H      362.302     -94.040     -29.456
  H      365.163     -88.393     -35.043
  H      357.617     -90.186     -26.599
  H      359.917     -91.256     -32.526
  H      361.315     -90.609     -28.989
  H      361.679     -92.664     -31.263
  H      364.082     -92.559     -30.611
  H      364.010     -89.767     -30.518
  H      363.208     -91.553     -32.859
  H      363.278     -89.775     -32.998
  H      354.387     -90.721     -29.688
  H      355.191     -90.998     -31.238
  P      365.266     -91.306     -28.457
  C      365.670     -88.768     -28.944
  O      365.446     -89.785     -27.980
  O      365.962     -91.283     -29.902
  O      365.892     -92.344     -27.586
  H      366.889     -91.580     -29.823
  H      365.766     -87.824     -28.450
  H      364.845     -88.733     -29.624
  H      366.569     -88.981     -29.485

 6  7  8  9  10  11  12  13  14  15  25  28  32  33  34  35 0
 6-311+G(2d,p)
 ****
 36  37  40 0
 6-311+G(2d,p)
 ****
 1  2  3  4  5  16  17  18  19  20  21  22  23  24 0
 3-21G
 ****
 26  27  29  30  31  38  39 41  42  43  44  45  46  47  48 0
 3-21G
 ****


