%nproc=1
%NoSave
%Mem=1900MB
#P OB98/GEN NMR

erre ene a

0 1
  C       14.369    -468.080     367.544
  O       14.217    -466.681     367.418
  H       14.980    -468.442     366.713
  H       13.393    -468.564     367.494
  H       14.867    -468.340     368.483
  P       13.605    -465.851     368.646
  C       11.152    -466.165     367.904
  O       12.135    -466.444     368.893
  C        9.763    -466.554     368.413
  O        8.766    -465.863     367.599
  C        9.474    -468.069     368.316
  O        8.639    -468.445     369.420
  C        8.693    -468.144     367.021
  O        7.938    -469.328     366.931
  C        7.860    -466.866     367.104
  N        7.292    -466.513     365.809
  C        5.926    -466.722     365.640
  O        5.197    -467.193     366.514
  N        5.421    -466.446     364.402
  C        6.153    -466.094     363.305
  O        5.659    -465.936     362.194
  C        7.601    -465.936     363.522
  C        8.094    -466.146     364.746
  O       13.666    -464.364     368.526
  O       14.402    -466.392     369.925
  H        7.409    -469.447     367.740
  H       14.354    -465.744     370.654
  H        4.431    -466.581     364.269
  H        8.212    -465.672     362.670
  H        9.158    -466.057     364.942
  H        7.047    -466.972     367.835
  H        9.374    -468.115     366.166
  H       10.383    -468.679     368.309
  H        9.645    -466.194     369.441
  H       11.398    -466.745     367.005
  H       11.175    -465.097     367.654
  P        9.255    -468.840     370.851
  C       10.288    -471.119     370.270
  O       10.549    -469.774     370.671
  O        8.248    -469.374     371.822
  O        9.871    -467.467     371.408
  H        9.604    -467.352     372.340
  H       11.212    -471.650     370.180
  H        9.784    -471.118     369.326
  H        9.672    -471.597     371.003

 6  7  8  9  10  11  12  13  14  15  16  26  31  32  33  34  35 0
 6-311+G(2d,p)
 ****
 36  37 0
 6-311+G(2d,p)
 ****
 1  2  3  4  5  17  18  19  20  21  22  23  24  25 0
 3-21G
 ****
 27  28  29  30  38  39  40  41  42  43  44  45 0
 3-21G
 ****


