%nproc=1
%NoSave
%Mem=1900MB
#P OB98/GEN NMR

erre ene a

0 1
  C      730.924     380.753     140.865
  O      730.880     379.346     140.722
  P      731.976     378.653     139.782
  C      732.240     379.015     137.191
  O      731.387     378.747     138.294
  C      731.455     379.691     136.060
  O      730.993     380.982     136.499
  C      732.261     379.948     134.794
  O      732.429     378.773     134.016
  C      731.409     381.032     134.125
  O      730.291     380.434     133.442
  C      730.924     381.845     135.338
  N      731.688     383.079     135.545
  C      731.090     384.250     135.099
  O      729.991     384.282     134.548
  N      731.822     385.397     135.282
  C      733.086     385.475     135.804
  O      733.711     386.524     135.899
  C      733.672     384.202     136.230
  C      732.953     383.082     136.086
  O      731.794     377.116     140.196
  O      733.349     379.202     139.969
  H      730.890     376.934     140.517
  H      729.735     380.026     134.142
  H      731.399     386.269     134.980
  H      734.670     384.215     136.639
  H      733.378     382.123     136.393
  H      729.864     382.109     135.211
  H      731.975     381.606     133.384
  H      733.242     380.367     135.053
  H      730.573     379.067     135.837
  H      732.660     378.061     136.822
  H      733.069     379.647     137.511
  P      733.546     378.828     132.855
  C      733.901     380.493     130.876
  O      733.007     379.878     131.778
  O      733.342     377.398     132.157
  O      734.932     379.076     133.367
  H      732.396     377.154     132.052
  H      733.329     380.873     130.015
  H      734.654     379.783     130.506
  H      734.404     381.328     131.367
  H      730.137     381.070     141.517
  H      730.800     381.213     139.907
  H      731.868     381.040     141.279

 3  4  5  6  7  8  9  10  11  12  13  24  28  29  30  31  32 0
 6-311+G(2d,p)
 ****
 33  34 0
 6-311+G(2d,p)
 ****
 1  2  14  15  16  17  18  19  20  21  22  23  25  26  27 0
 3-21G
 ****
 35  36  37  38  39  40  41  42  43  44  45 0
 3-21G
 ****


