%nproc=1
%NoSave
%Mem=1900MB
#P OB98/GEN NMR

erre ene a

0 1
  C      -64.154     120.327    -104.598
  O      -65.337     119.580    -104.312
  P      -66.585     119.684    -105.312
  C      -67.964     121.433    -104.016
  O      -67.220     121.156    -105.193
  C      -69.025     122.508    -104.282
  O      -68.395     123.783    -104.600
  C      -69.940     122.153    -105.462
  O      -71.265     122.663    -105.244
  C      -69.326     122.929    -106.611
  O      -70.260     123.128    -107.670
  C      -68.888     124.202    -105.889
  N      -67.989     127.624    -109.591
  C      -69.141     127.160    -109.057
  N      -69.302     126.267    -108.058
  C      -68.111     125.854    -107.593
  C      -66.856     126.246    -108.032
  C      -66.817     127.171    -109.088
  N      -65.645     127.621    -109.652
  N      -65.863     125.604    -107.318
  C      -66.510     124.803    -106.497
  N      -67.867     124.942    -106.602
  O      -67.570     118.567    -105.237
  O      -65.881     119.732    -106.752
  H      -69.777     123.535    -108.412
  H      -66.387     119.173    -107.373
  H      -70.053     127.555    -109.494
  H      -66.048     124.098    -105.821
  H      -69.731     124.882    -105.716
  H      -68.465     122.383    -107.010
  H      -70.008     121.082    -105.678
  H      -69.614     122.662    -103.370
  H      -67.289     121.764    -103.222
  H      -65.717     128.193    -110.480
  H      -64.775     127.181    -109.387
  H      -68.420     120.505    -103.653
  P      -72.378     121.580    -104.820
  C      -73.406     121.252    -107.202
  O      -72.660     120.710    -106.135
  O      -73.573     122.181    -104.158
  O      -71.541     120.602    -103.871
  H      -70.700     120.290    -104.246
  H      -73.375     120.555    -108.042
  H      -72.985     122.206    -107.526
  H      -74.448     121.390    -106.900
  H      -63.425     120.145    -103.837
  H      -64.389     121.371    -104.625
  H      -63.762     120.025    -105.547

 3  4  5  6  7  8  9  10  11  12  22  25  29  30  31  32 0
 6-311+G(2d,p)
 ****
 33  36  37 0
 6-311+G(2d,p)
 ****
 1  2  13  14  15  16  17  18  19  20  21  23  24  26 0
 3-21G
 ****
 27  28  34  35  38  39  40  41  42  43  44  45  46  47  48 0
 3-21G
 ****


