%nproc=1
%NoSave
%Mem=1900MB
#P OB98/GEN NMR

erre ene a

0 1
  C     -184.416     -33.661    -350.715
  O     -184.798     -32.567    -349.901
  P     -184.006     -32.348    -348.526
  C     -184.768     -29.868    -348.780
  O     -184.503     -30.957    -347.906
  C     -185.326     -28.691    -347.980
  O     -184.529     -28.462    -346.799
  C     -185.311     -27.373    -348.745
  O     -186.389     -27.295    -349.660
  C     -185.400     -26.359    -347.612
  O     -186.763     -26.168    -347.197
  C     -184.586     -27.051    -346.500
  N     -183.254     -26.474    -346.341
  C     -183.169     -25.358    -345.516
  O     -184.149     -24.858    -344.964
  N     -181.922     -24.808    -345.378
  C     -180.789     -25.224    -346.015
  O     -179.709     -24.655    -345.894
  C     -180.946     -26.391    -346.899
  C     -182.152     -26.950    -347.024
  O     -182.505     -32.044    -348.992
  O     -184.072     -33.502    -347.583
  H     -187.240     -25.799    -347.967
  H     -181.875     -32.429    -348.352
  H     -181.835     -24.016    -344.764
  H     -180.066     -26.746    -347.420
  H     -182.289     -27.801    -347.679
  H     -185.110     -26.966    -345.541
  H     -185.017     -25.378    -347.904
  H     -184.350     -27.251    -349.259
  H     -186.346     -28.939    -347.662
  H     -185.495     -30.179    -349.535
  H     -183.842     -29.584    -349.288
  P     -186.465     -25.978    -350.581
  C     -188.648     -26.868    -351.709
  O     -188.010     -25.841    -350.980
  O     -185.733     -26.500    -351.906
  O     -185.835     -24.786    -349.945
  H     -185.887     -27.446    -352.061
  H     -188.275     -27.854    -351.419
  H     -188.480     -26.713    -352.778
  H     -189.723     -26.824    -351.511
  H     -185.027     -33.682    -351.593
  H     -184.543     -34.573    -350.170
  H     -183.389     -33.554    -350.997

 3  4  5  6  7  8  9  10  11  12  13  23  28  29  30  31  32 0
 6-311+G(2d,p)
 ****
 33  34 0
 6-311+G(2d,p)
 ****
 1  2  14  15  16  17  18  19  20  21  22  24  25  26 0
 3-21G
 ****
 27  35  36  37  38  39  40  41  42  43  44  45 0
 3-21G
 ****


