%nproc=1
%NoSave
%Mem=1900MB
#P OB98/GEN NMR

erre ene a

0 1
  C      686.778     413.115    -815.237
  O      685.667     413.545    -815.989
  H      687.672     413.174    -815.866
  H      686.631     412.072    -814.926
  H      686.929     413.744    -814.351
  P      684.306     413.900    -815.219
  C      682.574     412.368    -816.369
  O      683.099     413.676    -816.262
  C      681.144     412.382    -816.927
  O      680.381     413.402    -816.240
  C      681.158     412.753    -818.412
  O      680.051     412.192    -819.119
  C      680.998     414.267    -818.388
  O      680.501     414.805    -819.614
  C      680.065     414.443    -817.188
  N      678.483     419.287    -817.048
  C      678.195     418.301    -817.962
  N      677.394     418.659    -818.993
  N      678.655     417.079    -817.893
  C      679.511     416.892    -816.853
  C      679.893     417.789    -815.891
  C      679.344     419.130    -815.964
  O      679.585     420.055    -815.185
  N      680.788     417.244    -815.011
  C      680.944     416.006    -815.435
  N      680.180     415.734    -816.548
  O      684.353     415.502    -815.081
  O      684.120     413.242    -813.886
  H      680.521     415.766    -819.534
  H      683.810     415.792    -814.328
  H      678.085     420.201    -817.135
  H      681.587     415.262    -814.981
  H      679.019     414.323    -817.501
  H      681.993     414.706    -818.224
  H      677.156     419.629    -819.192
  H      682.086     412.456    -818.903
  H      677.402     418.049    -819.817
  H      680.646     411.429    -816.730
  H      682.586     411.927    -815.365
  H      683.225     411.750    -817.002
  P      680.193     410.672    -819.629
  C      681.157     411.236    -821.998
  O      680.104     410.692    -821.220
  O      678.816     409.993    -819.162
  O      681.382     409.958    -819.076
  H      678.981     409.412    -818.389
  H      680.911     411.157    -823.036
  H      682.060     410.696    -821.804
  H      681.295     412.265    -821.741

 6  7  8  9  10  11  12  13  14  15  26  29  33  34 0
 6-311+G(2d,p)
 ****
 36  38  39  40  41 0
 6-311+G(2d,p)
 ****
 1  2  3  4  5  16  17  18  19  20  21  22  23  24  25 0
 3-21G
 ****
 27  28  30  31  32  35  37  42  43  44  45  46  47 0
 3-21G
 ****
 48  49 0
 3-21G
 ****


