%nproc=1
%NoSave
%Mem=1900MB
#P OB98/GEN NMR

erre ene a

0 1
  C     -197.370    -198.346     240.341
  O     -198.170    -199.288     241.076
  P     -199.739    -199.016     241.266
  C     -199.399    -197.941     243.625
  O     -199.936    -197.813     242.312
  C     -200.012    -196.877     244.548
  O     -201.266    -197.363     245.103
  C     -199.163    -196.533     245.763
  O     -198.086    -195.663     245.433
  C     -200.187    -195.872     246.680
  O     -200.384    -194.494     246.330
  C     -201.459    -196.704     246.375
  N     -201.776    -197.663     247.431
  C     -202.612    -197.202     248.445
  O     -203.028    -196.044     248.516
  N     -202.932    -198.122     249.416
  C     -202.452    -199.402     249.499
  O     -202.767    -200.175     250.401
  C     -201.513    -199.794     248.449
  C     -201.214    -198.924     247.478
  O     -200.205    -200.287     242.123
  O     -200.539    -198.907     239.999
  H     -200.539    -194.476     245.366
  H     -201.137    -200.474     241.937
  H     -203.558    -197.821     250.153
  H     -201.092    -200.792     248.493
  H     -200.513    -199.206     246.694
  H     -202.320    -196.037     246.232
  H     -199.888    -195.907     247.731
  H     -198.798    -197.458     246.242
  H     -200.230    -195.981     243.960
  H     -198.312    -197.789     243.595
  H     -199.607    -198.951     244.010
  P     -196.599    -196.227     245.747
  C     -196.265    -194.834     247.927
  O     -196.436    -196.102     247.330
  O     -195.706    -195.037     245.133
  O     -196.346    -197.574     245.165
  H     -196.124    -194.178     245.232
  H     -196.812    -194.053     247.391
  H     -195.189    -194.585     247.959
  H     -196.643    -194.877     248.968
  H     -196.355    -198.684     240.314
  H     -197.415    -197.390     240.820
  H     -197.745    -198.263     239.342

 3  4  5  6  7  8  9  10  11  12  13  23  28  29  30  31  32 0
 6-311+G(2d,p)
 ****
 33  34 0
 6-311+G(2d,p)
 ****
 1  2  14  15  16  17  18  19  20  21  22  24  25  26 0
 3-21G
 ****
 27  35  36  37  38  39  40  41  42  43  44  45 0
 3-21G
 ****


