%nproc=1
%NoSave
%Mem=1900MB
#P OB98/GEN NMR

erre ene a

0 1
  C      276.276    -536.752    1012.994
  O      276.769    -537.496    1011.896
  H      276.909    -535.874    1013.135
  H      276.308    -537.359    1013.904
  H      275.250    -536.417    1012.805
  P      275.957    -538.785    1011.403
  C      275.782    -538.006    1008.959
  O      275.068    -538.320    1010.146
  C      274.807    -537.699    1007.818
  O      274.109    -538.923    1007.458
  C      273.760    -536.637    1008.170
  O      273.532    -535.838    1007.013
  C      272.521    -537.461    1008.478
  O      271.313    -536.727    1008.244
  C      272.694    -538.651    1007.539
  N      268.164    -540.370    1008.982
  C      268.525    -539.135    1008.469
  N      267.544    -538.218    1008.335
  N      269.752    -538.837    1008.104
  C      270.632    -539.857    1008.279
  C      270.393    -541.120    1008.780
  C      269.041    -541.432    1009.187
  O      268.664    -542.498    1009.663
  N      271.546    -541.864    1008.827
  C      272.480    -541.053    1008.361
  N      271.977    -539.826    1008.023
  O      275.193    -539.506    1012.467
  O      277.075    -539.716    1010.737
  H      270.597    -537.200    1008.707
  H      277.345    -540.424    1011.352
  H      267.214    -540.538    1009.247
  H      273.529    -541.305    1008.245
  H      272.325    -538.444    1006.517
  H      272.537    -537.780    1009.527
  H      266.586    -538.391    1008.573
  H      274.046    -536.015    1009.017
  H      267.792    -537.317    1007.938
  H      275.394    -537.398    1006.934
  H      276.404    -538.869    1008.690
  H      276.434    -537.152    1009.137
  P      273.287    -534.255    1007.218
  C      274.669    -533.281    1005.275
  O      274.590    -533.481    1006.678
  O      272.799    -533.841    1008.564
  O      272.203    -533.923    1006.072
  H      271.652    -533.175    1006.384
  H      275.573    -532.759    1005.039
  H      273.829    -532.704    1004.949
  H      274.664    -534.229    1004.779

 6  7  8  9  10  11  12  13  14  15  26  29  33  34 0
 6-311+G(2d,p)
 ****
 36  38  39  40  41 0
 6-311+G(2d,p)
 ****
 1  2  3  4  5  16  17  18  19  20  21  22  23  24  25 0
 3-21G
 ****
 27  28  30  31  32  35  37  42  43  44  45  46  47 0
 3-21G
 ****
 48  49 0
 3-21G
 ****


