%nproc=1
%NoSave
%Mem=1900MB
#P OB98/GEN NMR

erre ene a

0 1
  C      362.546    -894.680     135.883
  O      361.139    -894.660     136.060
  P      360.336    -893.350     135.591
  C      358.050    -894.650     135.447
  O      358.809    -893.590     136.017
  C      356.975    -895.110     136.434
  O      356.131    -894.000     136.807
  C      356.021    -896.170     135.889
  O      356.628    -897.450     135.877
  C      354.859    -896.040     136.838
  O      355.115    -896.740     138.076
  C      354.807    -894.520     137.088
  N      353.792    -893.820     136.296
  C      352.465    -894.150     136.583
  O      352.140    -894.960     137.448
  N      351.521    -893.510     135.821
  C      351.766    -892.660     134.788
  O      350.881    -892.140     134.109
  C      353.185    -892.390     134.512
  C      354.106    -892.970     135.262
  O      360.356    -893.550     133.999
  O      360.956    -892.080     136.066
  H      360.409    -894.490     133.756
  H      354.345    -896.570     138.656
  H      350.550    -893.720     136.024
  H      353.417    -891.710     133.689
  H      355.171    -892.780     135.075
  H      354.633    -894.300     138.160
  H      353.914    -896.460     136.429
  H      355.712    -895.910     134.879
  H      357.476    -895.480     137.345
  H      358.715    -895.480     135.216
  H      357.589    -894.290     134.521
  P      355.915    -898.580     134.957
  C      358.185    -899.270     133.835
  O      357.047    -899.650     134.597
  O      355.674    -897.760     133.590
  O      354.665    -899.140     135.557
  H      356.450    -897.200     133.353
  H      358.978    -900.000     133.997
  H      358.546    -898.280     134.138
  H      357.924    -899.240     132.763
  H      362.937    -895.610     136.240
  H      362.986    -893.874     136.432
  H      362.776    -894.571     134.844

 3  4  5  6  7  8  9  10  11  12  13  24  28  29  30  31  32 0
 6-311+G(2d,p)
 ****
 33  34 0
 6-311+G(2d,p)
 ****
 1  2  14  15  16  17  18  19  20  21  22  23  25  26  27 0
 3-21G
 ****
 35  36  37  38  39  40  41  42  43  44  45 0
 3-21G
 ****


