%nproc=1
%NoSave
%Mem=1900MB
#P OB98/GEN NMR

erre ene a

0 1
  C     -226.293     -61.133    -176.080
  O     -225.187     -61.813    -176.641
  P     -225.072     -63.412    -176.593
  C     -224.621     -65.209    -174.822
  O     -224.508     -63.828    -175.151
  C     -224.796     -65.411    -173.315
  O     -226.114     -64.924    -172.918
  C     -224.676     -66.872    -172.853
  O     -224.002     -66.865    -171.596
  C     -226.130     -67.295    -172.682
  O     -226.263     -68.412    -171.814
  C     -226.750     -65.987    -172.180
  N     -228.196     -65.958    -172.356
  C     -228.969     -66.371    -171.268
  O     -228.429     -66.854    -170.272
  N     -230.337     -66.229    -171.345
  C     -230.888     -65.897    -172.471
  N     -232.235     -65.703    -172.482
  C     -230.104     -65.692    -173.716
  C     -228.783     -65.701    -173.578
  O     -224.353     -64.031    -177.746
  O     -226.603     -63.904    -176.540
  H     -226.748     -64.558    -177.252
  H     -226.107     -68.116    -170.895
  H     -230.613     -65.547    -174.653
  H     -228.123     -65.539    -174.424
  H     -226.524     -65.835    -171.117
  H     -226.552     -67.571    -173.662
  H     -224.122     -67.492    -173.565
  H     -224.052     -64.786    -172.794
  H     -232.727     -65.807    -171.607
  H     -223.702     -65.706    -175.137
  H     -232.689     -65.147    -173.207
  H     -225.453     -65.659    -175.369
  P     -222.647     -67.720    -171.450
  C     -222.023     -70.240    -171.478
  O     -223.042     -69.268    -171.357
  O     -222.218     -67.384    -169.931
  O     -221.527     -67.357    -172.379
  H     -221.248     -67.506    -169.840
  H     -222.484     -71.229    -171.458
  H     -221.317     -70.166    -170.633
  H     -221.484     -70.123    -172.422
  H     -226.172     -60.079    -176.220
  H     -226.352     -61.350    -175.034
  H     -227.192     -61.456    -176.562

 3  4  5  6  7  8  9  10  11  12  13  24  27  28  29  30  32 0
 6-311+G(2d,p)
 ****
 34  35 0
 6-311+G(2d,p)
 ****
 1  2  14  15  16  17  18  19  20  21  22  23  25  26 0
 3-21G
 ****
 31  33  36  37  38  39  40  41  42  43  44  45  46 0
 3-21G
 ****


