%nproc=1
%NoSave
%Mem=1900MB
#P OB98/GEN NMR

erre ene a

0 1
  C      167.522    -347.758     -96.266
  O      166.996    -349.052     -96.487
  H      168.569    -347.744     -96.583
  H      167.471    -347.509     -95.201
  H      166.965    -347.018     -96.848
  P      165.463    -349.289     -96.085
  C      164.409    -348.998     -98.441
  O      164.741    -349.898     -97.392
  C      164.089    -349.772     -99.723
  O      165.338    -350.159    -100.364
  C      163.270    -351.052     -99.492
  O      162.336    -351.204    -100.569
  C      164.316    -352.152     -99.583
  O      163.744    -353.411     -99.919
  C      165.243    -351.571    -100.648
  N      168.191    -354.821    -103.121
  C      166.924    -354.354    -103.417
  N      166.350    -354.821    -104.551
  N      166.273    -353.500    -102.671
  C      166.979    -353.088    -101.584
  C      168.231    -353.489    -101.171
  C      168.929    -354.451    -101.998
  O      170.044    -354.920    -101.775
  N      168.583    -352.870     -99.992
  C      167.545    -352.105     -99.700
  N      166.552    -352.200    -100.638
  O      164.864    -347.805     -95.996
  O      165.240    -350.061     -94.828
  H      164.464    -354.075     -99.924
  H      164.143    -347.758     -95.341
  H      168.639    -355.488    -103.722
  H      167.462    -351.471     -98.827
  H      164.840    -351.693    -101.663
  H      164.840    -352.253     -98.625
  H      166.801    -355.454    -105.190
  H      162.736    -351.066     -98.539
  H      165.425    -354.475    -104.792
  H      163.577    -349.097    -100.418
  H      165.259    -348.331     -98.621
  H      163.541    -348.401     -98.141
  P      160.774    -351.112    -100.219
  C      160.116    -348.599    -100.311
  O      160.146    -349.848    -100.990
  O      160.781    -350.642     -98.680
  O      160.040    -352.402    -100.389
  H      160.504    -351.388     -98.113
  H      159.674    -347.859    -100.945
  H      161.114    -348.305    -100.062
  H      159.538    -348.694     -99.416

 6  7  8  9  10  11  12  13  14  15  26  29  33  34 0
 6-311+G(2d,p)
 ****
 36  38  39  40  41 0
 6-311+G(2d,p)
 ****
 1  2  3  4  5  16  17  18  19  20  21  22  23  24  25 0
 3-21G
 ****
 27  28  30  31  32  35  37  42  43  44  45  46  47 0
 3-21G
 ****
 48  49 0
 3-21G
 ****


