%nproc=1
%NoSave
%Mem=1900MB
#P OB98/GEN NMR

erre ene a

0 1
  C       76.705    -201.006    -215.695
  O       77.888    -201.378    -216.373
  H       76.097    -201.898    -215.532
  H       76.136    -200.296    -216.299
  H       76.945    -200.559    -214.727
  P       78.983    -200.232    -216.613
  C       78.723    -200.060    -219.199
  O       79.539    -200.447    -218.105
  C       78.815    -201.107    -220.310
  O       80.127    -201.013    -220.928
  C       78.648    -202.544    -219.804
  O       77.934    -203.303    -220.785
  C       80.077    -203.047    -219.705
  O       80.193    -204.461    -219.769
  C       80.722    -202.327    -220.894
  N       82.175    -202.235    -220.774
  C       82.935    -203.210    -221.413
  O       82.475    -204.098    -222.130
  N       84.287    -203.140    -221.198
  C       84.933    -202.233    -220.412
  O       86.147    -202.236    -220.242
  C       84.078    -201.233    -219.757
  C       82.759    -201.280    -219.963
  O       80.210    -200.695    -215.697
  O       78.537    -198.840    -216.316
  H       80.132    -200.311    -214.802
  H       79.707    -204.839    -219.008
  H       84.852    -203.839    -221.656
  H       84.554    -200.501    -219.118
  H       82.099    -200.567    -219.484
  H       80.459    -202.830    -221.833
  H       80.526    -202.714    -218.763
  H       78.130    -202.600    -218.846
  H       78.075    -200.870    -221.085
  H       79.070    -199.096    -219.583
  H       77.688    -199.957    -218.859
  P       76.348    -203.462    -220.585
  C       76.694    -205.925    -219.783
  O       76.048    -205.036    -220.677
  O       75.796    -202.870    -221.962
  O       75.845    -202.783    -219.355
  H       76.354    -203.086    -222.729
  H       76.378    -206.927    -219.986
  H       76.438    -205.667    -218.777
  H       77.754    -205.852    -219.911

 6  7  8  9  10  11  12  13  14  15  16  27  31  32  33  34  35 0
 6-311+G(2d,p)
 ****
 36  37 0
 6-311+G(2d,p)
 ****
 1  2  3  4  5  17  18  19  20  21  22  23  24  25 0
 3-21G
 ****
 26  28  29  30  38  39  40  41  42  43  44  45 0
 3-21G
 ****


