%nproc=1
%NoSave
%Mem=1900MB
#P OB98/GEN NMR

erre ene a

0 1
  C     -550.911     433.123     140.488
  O     -551.458     431.898     140.073
  P     -550.767     430.945     139.000
  C     -549.630     429.628     140.962
  O     -549.491     430.238     139.683
  C     -549.854     428.106     140.833
  O     -548.779     427.560     140.012
  C     -549.785     427.414     142.202
  O     -550.775     426.403     142.374
  C     -548.323     426.981     142.295
  O     -548.099     425.942     143.237
  C     -547.995     426.660     140.834
  N     -543.478     424.360     140.503
  C     -544.719     423.794     140.686
  N     -544.753     422.493     141.017
  N     -545.834     424.481     140.606
  C     -545.653     425.805     140.410
  C     -544.464     426.462     140.191
  C     -543.243     425.709     140.254
  O     -542.110     426.179     140.198
  N     -544.660     427.823     140.077
  C     -545.960     427.982     140.241
  N     -546.599     426.791     140.476
  O     -550.608     431.487     137.612
  O     -551.822     429.718     138.928
  H     -548.344     426.295     144.111
  H     -551.818     429.396     138.009
  H     -542.645     423.785     140.661
  H     -546.477     428.930     140.225
  H     -548.289     425.643     140.575
  H     -547.757     427.857     142.641
  H     -543.908     421.993     141.230
  H     -550.011     428.119     142.996
  H     -545.609     422.111     141.400
  H     -550.796     427.922     140.294
  H     -550.502     430.094     141.428
  H     -548.765     429.845     141.579
  P     -551.437     425.863     143.719
  C     -553.861     426.656     143.375
  O     -552.662     426.836     144.098
  O     -550.372     426.171     144.861
  O     -551.782     424.416     143.728
  H     -550.345     425.444     145.509
  H     -554.501     427.539     143.517
  H     -554.375     425.773     143.725
  H     -553.642     426.549     142.297
  H     -551.557     433.575     141.211
  H     -550.810     433.773     139.644
  H     -549.949     432.954     140.925

 3  4  5  6  7  8  9  10  11  12  23  26  30  31 0
 6-311+G(2d,p)
 ****
 33  35  36  37  38 0
 6-311+G(2d,p)
 ****
 1  2  13  14  15  16  17  18  19  20  21  22  24  25 0
 3-21G
 ****
 27  28  29  32  34  39  40  41  42  43  44  45  46  47  48  49 0
 3-21G
 ****


