%nproc=1
%NoSave
%Mem=1900MB
#P OB98/GEN NMR

erre ene a

0 1
  C     -394.200     785.702     170.952
  O     -394.907     785.180     169.853
  H     -393.351     785.045     171.174
  H     -394.857     785.744     171.831
  H     -393.810     786.703     170.743
  P     -395.889     786.147     169.038
  C     -398.219     787.215     169.381
  O     -397.277     786.248     169.840
  C     -399.131     787.698     170.513
  O     -398.448     788.708     171.291
  C     -400.410     788.337     169.986
  O     -401.477     787.406     169.748
  C     -400.783     789.288     171.119
  O     -401.578     788.645     172.125
  C     -399.414     789.688     171.702
  N     -399.306     794.704     172.721
  C     -400.024     793.704     173.353
  N     -400.833     794.102     174.360
  N     -399.957     792.440     173.009
  C     -399.179     792.212     171.924
  C     -398.437     793.124     171.213
  C     -398.463     794.503     171.636
  O     -397.829     795.427     171.121
  N     -397.801     792.524     170.136
  C     -398.233     791.278     170.173
  N     -399.000     791.024     171.280
  O     -396.295     785.277     167.752
  O     -395.291     787.454     168.613
  H     -402.487     788.526     171.766
  H     -396.446     785.862     166.994
  H     -399.378     795.643     173.041
  H     -397.970     790.511     169.446
  H     -399.420     789.688     172.796
  H     -401.368     790.136     170.750
  H     -400.992     795.069     174.602
  H     -400.226     788.927     169.086
  H     -401.517     793.436     174.721
  H     -399.337     786.858     171.197
  H     -398.808     786.726     168.599
  H     -397.701     788.054     168.920
  P     -402.777     787.844     168.934
  C     -404.638     789.641     169.414
  O     -403.716     788.685     169.908
  O     -403.576     786.462     168.755
  O     -402.519     788.524     167.630
  H     -403.410     786.097     167.867
  H     -405.163     790.087     170.233
  H     -405.337     789.159     168.762
  H     -404.111     790.399     168.874

 6  7  8  9  10  11  12  13  14  15  26  29  33  34 0
 6-311+G(2d,p)
 ****
 36  38  39  40  41 0
 6-311+G(2d,p)
 ****
 1  2  3  4  5  16  17  18  19  20  21  22  23  24  25 0
 3-21G
 ****
 27  28  30  31  32  35  37  42  43  44  45  46  47 0
 3-21G
 ****
 48  49 0
 3-21G
 ****


