%nproc=1
%NoSave
%Mem=1900MB
#P OB98/GEN NMR

erre ene a

0 1
  C      -18.776     782.406    -149.055
  O      -18.415     781.073    -148.762
  H      -19.688     782.650    -148.493
  H      -18.988     782.507    -150.123
  H      -17.990     783.107    -148.764
  P      -16.913     780.598    -149.066
  C      -16.815     779.050    -151.131
  O      -16.767     780.389    -150.651
  C      -18.255     778.535    -151.230
  O      -19.083     779.529    -151.870
  C      -18.362     777.254    -152.066
  O      -18.155     776.058    -151.339
  C      -19.795     777.336    -152.585
  O      -20.725     776.737    -151.658
  C      -20.049     778.850    -152.694
  N      -21.736     778.430    -157.502
  C      -21.943     777.574    -156.435
  N      -22.652     776.452    -156.698
  N      -21.477     777.796    -155.231
  C      -20.693     778.904    -155.144
  C      -20.408     779.814    -156.144
  C      -20.991     779.601    -157.453
  O      -20.849     780.329    -158.422
  N      -19.546     780.796    -155.695
  C      -19.264     780.424    -154.461
  N      -19.991     779.331    -154.067
  O      -16.886     779.092    -148.516
  O      -15.839     781.425    -148.427
  H      -20.515     777.079    -150.770
  H      -15.986     778.883    -148.189
  H      -22.147     778.215    -158.392
  H      -18.561     780.933    -153.811
  H      -21.033     779.113    -152.299
  H      -19.902     776.797    -153.531
  H      -22.962     776.192    -157.621
  H      -17.679     777.292    -152.931
  H      -22.667     775.713    -155.988
  H      -18.645     778.382    -150.213
  H      -16.250     778.447    -150.412
  H      -16.314     778.970    -152.102
  P      -17.571     774.750    -152.067
  C      -19.217     772.811    -152.740
  O      -18.731     774.118    -152.968
  O      -17.438     773.702    -150.859
  O      -16.278     774.930    -152.789
  H      -16.516     773.662    -150.537
  H      -19.985     772.587    -153.450
  H      -19.617     772.747    -151.750
  H      -18.417     772.109    -152.848

 6  7  8  9  10  11  12  13  14  15  26  29  33  34 0
 6-311+G(2d,p)
 ****
 36  38  39  40  41 0
 6-311+G(2d,p)
 ****
 1  2  3  4  5  16  17  18  19  20  21  22  23  24  25 0
 3-21G
 ****
 27  28  30  31  32  35  37  42  43  44  45  46  47 0
 3-21G
 ****
 48  49 0
 3-21G
 ****


