%nproc=1
%NoSave
%Mem=1900MB
#P OB98/GEN NMR

erre ene a

0 1
  C     -618.522      66.071    -891.950
  O     -617.491      67.036    -891.960
  H     -619.482      66.587    -891.830
  H     -618.387      65.378    -891.110
  H     -618.538      65.513    -892.890
  P     -615.995      66.481    -892.130
  C     -615.494      67.970    -894.190
  O     -615.612      66.660    -893.680
  C     -614.545      68.015    -895.400
  O     -613.275      67.377    -895.020
  C     -615.086      67.277    -896.630
  O     -614.690      67.983    -897.810
  C     -614.332      65.937    -896.600
  O     -614.270      65.332    -897.880
  C     -612.988      66.414    -896.040
  N     -609.971      62.568    -897.320
  C     -610.532      63.543    -898.100
  N     -610.278      63.526    -899.430
  N     -611.311      64.489    -897.620
  C     -611.464      64.427    -896.270
  C     -610.968      63.509    -895.400
  C     -610.125      62.448    -895.940
  O     -609.587      61.531    -895.300
  N     -611.363      63.750    -894.100
  C     -612.132      64.833    -894.200
  N     -612.212      65.274    -895.500
  O     -616.157      64.898    -891.970
  O     -614.987      67.052    -891.170
  H     -613.739      64.513    -897.780
  H     -615.352      64.494    -891.580
  H     -609.387      61.856    -897.730
  H     -612.654      65.343    -893.380
  H     -612.348      66.888    -896.810
  H     -614.831      65.243    -895.900
  H     -609.670      62.843    -899.860
  H     -616.165      67.135    -896.620
  H     -610.703      64.251    -900.000
  H     -614.295      69.048    -895.640
  H     -615.106      68.626    -893.390
  H     -616.485      68.346    -894.500
  P     -615.559      69.279    -898.210
  C     -613.533      70.901    -898.430
  O     -614.756      70.601    -897.790
  O     -616.782      69.218    -897.190
  O     -616.044      69.271    -899.630
  H     -617.602      68.977    -897.660
  H     -613.136      71.811    -898.031
  H     -613.699      71.015    -899.481
  H     -612.838      70.105    -898.263

 6  7  8  9  10  11  12  13  14  15  26  29  33  34 0
 6-311+G(2d,p)
 ****
 36  38  39  40  41 0
 6-311+G(2d,p)
 ****
 1  2  3  4  5  16  17  18  19  20  21  22  23  24  25 0
 3-21G
 ****
 27  28  30  31  32  35  37  42  43  44  45  46  47 0
 3-21G
 ****
 48  49 0
 3-21G
 ****


