%nproc=1
%NoSave
%Mem=1900MB
#P OB98/GEN NMR

erre ene a

0 1
  C     -174.526    -835.859    -293.159
  O     -174.297    -836.724    -292.058
  P     -173.859    -838.243    -292.354
  C     -175.319    -840.423    -292.268
  O     -175.211    -839.061    -292.639
  C     -176.797    -840.786    -292.037
  O     -177.253    -840.169    -290.800
  C     -177.749    -840.329    -293.156
  O     -178.766    -841.332    -293.274
  C     -178.328    -839.042    -292.600
  O     -179.564    -838.695    -293.207
  C     -178.426    -839.394    -291.110
  N     -178.512    -838.222    -290.235
  C     -179.783    -837.785    -289.852
  O     -180.829    -838.318    -290.232
  N     -179.817    -836.680    -289.040
  C     -178.725    -835.952    -288.636
  O     -178.816    -834.957    -287.916
  C     -177.418    -836.427    -289.099
  C     -177.368    -837.525    -289.862
  O     -173.409    -838.722    -290.894
  O     -172.808    -838.369    -293.413
  H     -173.945    -838.332    -290.184
  H     -179.438    -838.703    -294.170
  H     -180.720    -836.361    -288.722
  H     -176.546    -835.868    -288.811
  H     -176.415    -837.906    -290.226
  H     -179.300    -840.047    -290.938
  H     -177.618    -838.217    -292.769
  H     -177.228    -840.200    -294.118
  H     -176.859    -841.884    -291.896
  H     -174.766    -840.588    -291.337
  H     -174.881    -841.047    -293.039
  P     -179.530    -841.471    -294.696
  C     -181.185    -839.974    -296.062
  O     -180.470    -840.184    -294.869
  O     -180.568    -842.644    -294.343
  O     -178.635    -841.819    -295.856
  H     -181.042    -842.491    -293.509
  H     -182.001    -839.270    -295.869
  H     -181.605    -840.896    -296.462
  H     -180.515    -839.532    -296.812
  H     -174.808    -834.891    -292.800
  H     -175.312    -836.256    -293.767
  H     -173.631    -835.777    -293.740

 3  4  5  6  7  8  9  10  11  12  13  24  28  29  30  31  32 0
 6-311+G(2d,p)
 ****
 33  34 0
 6-311+G(2d,p)
 ****
 1  2  14  15  16  17  18  19  20  21  22  23  25  26  27 0
 3-21G
 ****
 35  36  37  38  39  40  41  42  43  44  45 0
 3-21G
 ****


