%nproc=1
%NoSave
%Mem=1900MB
#P OB98/GEN NMR

erre ene a

0 1
  C     -690.641      84.505    1014.981
  O     -690.840      84.917    1013.611
  P     -692.174      84.551    1012.799
  C     -692.814      86.959    1012.107
  O     -692.396      85.673    1011.646
  C     -692.107      88.086    1011.329
  O     -690.682      87.810    1011.274
  C     -692.552      88.265    1009.899
  O     -693.790      88.971    1009.850
  C     -691.374      89.012    1009.277
  O     -691.434      90.412    1009.602
  C     -690.188      88.340    1010.002
  N     -686.095      87.062    1007.213
  C     -686.416      88.189    1007.874
  N     -687.529      88.451    1008.591
  C     -688.359      87.388    1008.605
  C     -688.157      86.177    1007.965
  C     -686.973      86.012    1007.213
  N     -686.658      84.884    1006.526
  N     -689.243      85.332    1008.170
  C     -690.062      86.017    1008.954
  N     -689.555      87.266    1009.248
  O     -693.364      84.293    1013.650
  O     -691.787      83.251    1011.958
  H     -692.261      90.755    1009.273
  H     -692.599      82.708    1011.798
  H     -685.688      88.991    1007.817
  H     -691.008      85.668    1009.326
  H     -689.404      89.067    1010.246
  H     -691.341      88.919    1008.194
  H     -692.669      87.283    1009.412
  H     -692.238      89.007    1011.910
  H     -692.592      87.060    1013.169
  H     -685.805      84.853    1005.997
  H     -687.347      84.126    1006.510
  H     -693.885      87.050    1011.972
  P     -695.194      88.199    1009.927
  C     -696.333      90.148    1011.146
  O     -696.357      89.303    1010.020
  O     -695.270      87.116    1010.975
  O     -695.385      87.583    1008.449
  H     -695.869      86.744    1008.510
  H     -696.781      89.621    1011.994
  H     -696.945      91.047    1010.919
  H     -695.324      90.462    1011.403
  H     -689.690      84.854    1015.324
  H     -690.671      83.437    1015.040
  H     -691.415      84.918    1015.594

 3  4  5  6  7  8  9  10  11  12  22  25  29  30  31  32 0
 6-311+G(2d,p)
 ****
 33  36  37 0
 6-311+G(2d,p)
 ****
 1  2  13  14  15  16  17  18  19  20  21  23  24  26 0
 3-21G
 ****
 27  28  34  35  38  39  40  41  42  43  44  45  46  47  48 0
 3-21G
 ****


