%nproc=1
%NoSave
%Mem=1900MB
#P OB98/GEN NMR

erre ene a

0 1
  C     -192.721      22.238     139.244
  O     -191.668      22.408     138.285
  P     -190.973      23.854     138.197
  C     -191.262      24.228     135.618
  O     -190.390      23.959     136.707
  C     -190.551      23.951     134.296
  O     -190.194      22.550     134.190
  C     -191.392      24.249     133.061
  O     -191.496      25.648     132.831
  C     -190.623      23.482     131.995
  O     -189.483      24.238     131.555
  C     -190.153      22.232     132.779
  N     -190.936      21.040     132.476
  C     -190.208      19.920     132.079
  O     -188.982      19.923     131.957
  N     -190.941      18.798     131.799
  C     -192.302      18.698     131.853
  O     -192.907      17.661     131.605
  C     -193.019      19.926     132.230
  C     -192.319      21.024     132.517
  O     -189.687      23.630     139.117
  O     -191.879      24.960     138.624
  H     -189.319      22.733     139.051
  H     -188.990      23.662     130.938
  H     -190.433      17.974     131.524
  H     -194.102      19.889     132.257
  H     -192.829      21.941     132.797
  H     -189.102      22.016     132.547
  H     -191.233      23.263     131.112
  H     -192.394      23.817     133.179
  H     -189.623      24.545     134.276
  H     -191.578      25.276     135.645
  H     -192.161      23.610     135.723
  P     -192.803      26.158     132.042
  C     -191.652      28.385     131.302
  O     -192.707      27.757     131.990
  O     -193.949      25.864     133.120
  O     -193.009      25.480     130.725
  H     -193.703      26.136     134.020
  H     -191.940      29.419     131.082
  H     -191.432      27.880     130.358
  H     -190.758      28.396     131.928
  H     -193.090      21.235     139.194
  H     -193.515      22.921     139.027
  H     -192.343      22.431     140.226

 3  4  5  6  7  8  9  10  11  12  13  24  28  29  30  31  32 0
 6-311+G(2d,p)
 ****
 33  34 0
 6-311+G(2d,p)
 ****
 1  2  14  15  16  17  18  19  20  21  22  23  25  26  27 0
 3-21G
 ****
 35  36  37  38  39  40  41  42  43  44  45 0
 3-21G
 ****


