%nproc=1
%NoSave
%Mem=1900MB
#P OB98/GEN NMR

erre ene a

0 1
  C     -748.394    -860.134     368.608
  O     -747.211    -860.644     369.178
  H     -749.002    -860.965     368.248
  H     -748.160    -859.480     367.752
  H     -748.971    -859.566     369.346
  P     -746.145    -859.617     369.785
  C     -744.468    -860.553     368.056
  O     -744.704    -860.209     369.426
  C     -742.980    -860.808     367.836
  O     -742.208    -859.630     368.156
  C     -742.403    -861.939     368.697
  O     -742.707    -863.210     368.128
  C     -740.926    -861.595     368.651
  O     -740.363    -861.998     367.382
  C     -740.963    -860.066     368.762
  N     -738.025    -858.034     372.365
  C     -737.690    -858.505     371.095
  N     -736.387    -858.440     370.754
  N     -738.560    -858.976     370.249
  C     -739.814    -859.035     370.753
  C     -740.256    -858.619     371.991
  C     -739.302    -858.049     372.901
  O     -739.550    -857.597     374.009
  N     -741.600    -858.890     372.154
  C     -741.965    -859.426     371.007
  N     -740.910    -859.541     370.123
  O     -746.314    -859.255     371.231
  O     -746.267    -858.335     368.836
  H     -739.413    -861.746     367.417
  H     -746.909    -857.686     369.184
  H     -737.298    -857.691     372.987
  H     -742.972    -859.740     370.763
  H     -740.142    -859.591     368.212
  H     -740.353    -862.100     369.442
  H     -735.651    -858.369     371.461
  H     -742.750    -861.868     369.736
  H     -736.107    -858.822     369.862
  H     -742.832    -861.024     366.773
  H     -744.806    -859.708     367.448
  H     -745.043    -861.429     367.780
  P     -743.561    -864.313     368.929
  C     -742.775    -866.448     367.742
  O     -743.807    -865.482     367.897
  O     -744.793    -863.776     369.592
  O     -742.513    -864.948     369.939
  H     -742.452    -864.462     370.804
  H     -743.074    -867.176     367.017
  H     -742.595    -866.931     368.680
  H     -741.880    -865.964     367.413

 6  7  8  9  10  11  12  13  14  15  26  29  33  34 0
 6-311+G(2d,p)
 ****
 36  38  39  40  41 0
 6-311+G(2d,p)
 ****
 1  2  3  4  5  16  17  18  19  20  21  22  23  24  25 0
 3-21G
 ****
 27  28  30  31  32  35  37  42  43  44  45  46  47 0
 3-21G
 ****
 48  49 0
 3-21G
 ****


