%nproc=1
%NoSave
%Mem=1900MB
#P OB98/GEN NMR

erre ene a

0 1
  C       23.328    -475.991      -6.161
  O       22.094    -476.531      -6.599
  P       22.123    -477.994      -7.263
  C       23.109    -477.162      -9.526
  O       22.022    -477.783      -8.849
  C       23.322    -477.822     -10.886
  O       23.968    -479.098     -10.725
  C       22.044    -478.104     -11.662
  O       21.514    -476.919     -12.233
  C       22.551    -479.131     -12.674
  O       23.241    -478.466     -13.742
  C       23.543    -479.949     -11.826
  N       22.160    -484.756     -12.919
  C       22.685    -483.773     -13.685
  N       23.007    -482.511     -13.325
  C       22.742    -482.302     -12.026
  C       22.186    -483.201     -11.130
  C       21.889    -484.482     -11.620
  N       21.351    -485.479     -10.835
  N       22.038    -482.624      -9.886
  C       22.506    -481.398     -10.024
  N       22.954    -481.161     -11.295
  O       20.693    -478.599      -6.877
  O       23.245    -478.870      -6.803
  H       23.365    -479.120     -14.459
  H       20.753    -479.563      -6.727
  H       22.876    -484.035     -14.718
  H       22.543    -480.655      -9.243
  H       24.441    -480.232     -12.386
  H       21.747    -479.727     -13.120
  H       21.294    -478.566     -11.007
  H       23.990    -477.171     -11.476
  H       24.019    -477.275      -8.932
  H       21.036    -486.315     -11.301
  H       21.023    -485.234      -9.911
  H       22.894    -476.096      -9.634
  P       20.621    -475.979     -11.284
  C       18.356    -477.137     -11.635
  O       19.163    -476.022     -11.966
  O       21.149    -474.523     -11.685
  O       20.675    -476.318      -9.837
  H       21.182    -474.400     -12.648
  H       17.385    -477.016     -12.120
  H       18.213    -477.200     -10.555
  H       18.817    -478.057     -12.004
  H       23.164    -475.020      -5.743
  H       23.998    -475.913      -6.992
  H       23.754    -476.632      -5.418

 3  4  5  6  7  8  9  10  11  12  22  25  29  30  31  32 0
 6-311+G(2d,p)
 ****
 33  36  37 0
 6-311+G(2d,p)
 ****
 1  2  13  14  15  16  17  18  19  20  21  23  24  26 0
 3-21G
 ****
 27  28  34  35  38  39  40  41  42  43  44  45  46  47  48 0
 3-21G
 ****


