%nproc=1
%NoSave
%Mem=1900MB
#P OB98/GEN NMR

erre ene a

0 1
  C      681.035    -125.290    -705.666
  O      679.629    -125.240    -705.577
  H      681.448    -124.375    -705.235
  H      681.344    -125.355    -706.711
  H      681.424    -126.148    -705.111
  P      678.812    -126.552    -706.006
  C      678.572    -127.231    -703.509
  O      678.990    -127.614    -704.814
  C      678.604    -128.434    -702.568
  O      677.464    -129.287    -702.858
  C      679.871    -129.281    -702.695
  O      680.251    -129.734    -701.391
  C      679.426    -130.472    -703.528
  O      680.232    -131.631    -703.309
  C      677.958    -130.616    -703.101
  N      677.174    -131.311    -704.118
  C      677.143    -132.705    -704.043
  O      677.765    -133.293    -703.156
  N      676.460    -133.407    -705.006
  C      675.928    -132.775    -706.009
  N      675.291    -133.528    -706.945
  C      675.993    -131.309    -706.162
  C      676.618    -130.646    -705.190
  O      679.701    -127.175    -707.181
  O      677.399    -126.318    -706.422
  H      681.175    -131.359    -703.349
  H      679.145    -127.633    -707.841
  H      675.557    -130.830    -707.025
  H      676.727    -129.565    -705.220
  H      677.888    -131.177    -702.158
  H      679.489    -130.216    -704.591
  H      680.705    -128.743    -703.153
  H      678.475    -128.073    -701.539
  H      675.279    -134.531    -706.810
  H      677.549    -126.847    -703.564
  H      674.881    -133.143    -707.784
  H      679.227    -126.435    -703.141
  P      680.930    -128.650    -700.427
  C      679.175    -128.859    -698.521
  O      679.786    -128.020    -699.492
  O      681.310    -127.455    -701.418
  O      682.126    -129.163    -699.697
  H      682.276    -127.419    -701.546
  H      678.439    -128.301    -697.980
  H      679.919    -129.219    -697.842
  H      678.707    -129.688    -699.010

 6  7  8  9  10  11  12  13  14  15  16  26  30  31  32  33  35 0
 6-311+G(2d,p)
 ****
 37  38 0
 6-311+G(2d,p)
 ****
 1  2  3  4  5  17  18  19  20  21  22  23  24  25 0
 3-21G
 ****
 27  28  29  34  36  39  40  41  42  43  44  45  46 0
 3-21G
 ****


