%nproc=1
%NoSave
%Mem=1900MB
#P OB98/GEN NMR

erre ene a

0 1
  C      367.929     -32.263    -322.323
  O      369.042     -32.080    -323.174
  H      367.835     -31.389    -321.671
  H      368.072     -33.152    -321.701
  H      367.013     -32.364    -322.912
  P      369.331     -33.236    -324.246
  C      371.350     -34.031    -322.808
  O      370.135     -34.386    -323.460
  C      372.510     -34.812    -323.421
  O      373.740     -34.456    -322.747
  C      372.391     -36.328    -323.273
  O      371.508     -36.884    -324.234
  C      373.839     -36.759    -323.459
  O      374.187     -36.861    -324.844
  C      374.617     -35.601    -322.810
  N      378.633     -37.288    -320.156
  C      378.478     -36.983    -321.465
  N      377.372     -36.523    -322.092
  C      376.364     -36.369    -321.216
  C      376.372     -36.641    -319.859
  C      377.581     -37.124    -319.322
  N      377.731     -37.463    -317.998
  N      375.127     -36.398    -319.309
  C      374.384     -35.981    -320.313
  N      375.092     -35.939    -321.481
  O      370.439     -32.579    -325.196
  O      368.140     -33.706    -325.013
  H      373.695     -37.630    -325.200
  H      370.008     -32.179    -325.974
  H      379.353     -37.141    -322.092
  H      373.336     -35.707    -320.245
  H      375.492     -35.307    -323.401
  H      374.028     -37.734    -323.005
  H      372.071     -36.588    -322.257
  H      372.606     -34.530    -324.475
  H      371.274     -34.277    -321.741
  H      371.511     -32.956    -322.918
  H      378.616     -37.823    -317.687
  H      376.920     -37.445    -317.389
  P      370.339     -37.857    -323.725
  C      371.761     -39.851    -324.603
  O      370.972     -39.323    -323.550
  O      369.398     -38.000    -325.010
  O      369.589     -37.360    -322.531
  H      368.617     -37.413    -324.923
  H      372.106     -40.828    -324.335
  H      372.601     -39.211    -324.775
  H      371.171     -39.913    -325.494

 6  7  8  9  10  11  12  13  14  15  25  28  32  33  34  35 0
 6-311+G(2d,p)
 ****
 36  37  40 0
 6-311+G(2d,p)
 ****
 1  2  3  4  5  16  17  18  19  20  21  22  23  24 0
 3-21G
 ****
 26  27  29  30  31  38  39 41  42  43  44  45  46  47  48 0
 3-21G
 ****


