%nproc=1
%NoSave
%Mem=1900MB
#P OB98/GEN NMR

erre ene a

0 1
  C     1905.854     -81.408     924.859
  O     1905.190     -82.381     925.642
  H     1905.170     -80.577     924.691
  H     1906.143     -81.829     923.892
  H     1906.732     -81.041     925.387
  P     1906.004     -83.724     925.968
  C     1905.208     -83.619     928.416
  O     1906.325     -83.629     927.538
  C     1905.678     -83.556     929.864
  O     1906.503     -84.724     930.143
  C     1906.516     -82.313     930.206
  O     1906.231     -81.913     931.561
  C     1907.937     -82.822     930.166
  O     1908.846     -82.024     930.912
  C     1907.755     -84.253     930.664
  N     1911.220     -87.640     932.282
  C     1910.148     -87.055     932.888
  N     1909.271     -86.182     932.376
  C     1909.526     -85.962     931.068
  C     1910.562     -86.487     930.313
  C     1911.446     -87.345     930.971
  N     1912.551     -87.908     930.369
  N     1910.508     -85.971     929.018
  C     1909.453     -85.169     929.005
  N     1908.846     -85.111     930.230
  O     1907.187     -83.993     925.099
  O     1904.858     -84.837     925.926
  H     1908.440     -81.862     931.789
  H     1904.063     -84.555     926.410
  H     1910.004     -87.320     933.935
  H     1909.110     -84.600     928.144
  H     1907.716     -84.314     931.769
  H     1908.289     -82.826     929.113
  H     1906.353     -81.487     929.515
  H     1904.789     -83.640     930.522
  H     1904.590     -84.498     928.263
  H     1913.126     -88.521     930.933
  H     1912.742     -87.724     929.401
  H     1904.592     -82.731     928.184
  P     1904.861     -81.092     931.815
  C     1903.960     -82.732     933.605
  O     1903.724     -82.119     932.336
  O     1904.414     -80.201     930.726
  O     1905.192     -80.269     933.156
  H     1904.847     -79.356     933.059
  H     1903.147     -83.385     933.842
  H     1904.041     -81.975     934.357
  H     1904.869     -83.294     933.566

 6  7  8  9  10  11  12  13  14  15  25  28  32  33  34  35 0
 6-311+G(2d,p)
 ****
 36  39  40 0
 6-311+G(2d,p)
 ****
 1  2  3  4  5  16  17  18  19  20  21  22  23  24 0
 3-21G
 ****
 26  27  29  30  31  37  38  41  42  43  44  45  46  47 0
 3-21G
 ****
 48 0
 3-21G
 ****


