%nproc=1
%NoSave
%Mem=1900MB
#P OB98/GEN NMR

erre ene a

0 1
  C     -468.793     727.676     298.243
  O     -467.702     727.276     297.435
  H     -469.675     727.097     297.950
  H     -469.013     728.737     298.087
  H     -468.585     727.487     299.296
  P     -466.254     727.908     297.726
  C     -464.626     726.000     297.168
  O     -465.232     727.204     296.705
  C     -464.502     724.995     296.023
  O     -465.785     724.352     295.823
  C     -464.081     725.627     294.689
  O     -463.203     724.721     294.020
  C     -465.388     725.729     293.926
  O     -465.193     725.723     292.512
  C     -466.158     724.522     294.435
  N     -470.407     722.424     292.683
  C     -469.119     721.928     292.720
  N     -468.916     720.704     292.180
  N     -468.104     722.581     293.228
  C     -468.447     723.792     293.744
  C     -469.679     724.388     293.760
  C     -470.793     723.664     293.182
  O     -471.953     724.059     293.109
  N     -469.618     725.637     294.340
  C     -468.346     725.785     294.670
  N     -467.595     724.698     294.312
  O     -465.818     727.884     299.155
  O     -466.362     729.401     297.160
  H     -466.077     725.721     292.098
  H     -466.515     730.034     297.886
  H     -471.144     721.876     292.265
  H     -467.928     726.656     295.153
  H     -465.901     723.594     293.899
  H     -465.896     726.668     294.194
  H     -469.648     720.138     291.790
  H     -463.594     726.595     294.809
  H     -467.979     720.309     292.217
  H     -463.796     724.206     296.321
  H     -465.244     725.581     297.960
  H     -463.633     726.223     297.576
  P     -461.970     725.312     293.187
  C     -460.113     725.602     294.956
  O     -460.610     724.812     293.875
  O     -462.029     726.777     292.896
  O     -462.005     724.456     291.828
  H     -461.658     725.000     291.101
  H     -459.208     725.169     295.328
  H     -460.841     725.634     295.739
  H     -459.917     726.596     294.611

 6  7  8  9  10  11  12  13  14  15  26  29  33  34 0
 6-311+G(2d,p)
 ****
 36  38  39  40  41 0
 6-311+G(2d,p)
 ****
 1  2  3  4  5  16  17  18  19  20  21  22  23  24  25 0
 3-21G
 ****
 27  28  30  31  32  35  37  42  43  44  45  46  47 0
 3-21G
 ****
 48  49 0
 3-21G
 ****


