%nproc=1
%NoSave
%Mem=1900MB
#P OB98/GEN NMR

erre ene a

0 1
  C     -955.773    -265.796    -119.212
  O     -954.945    -264.808    -118.630
  H     -956.506    -265.299    -119.854
  H     -956.307    -266.349    -118.432
  H     -955.178    -266.483    -119.814
  P     -953.778    -265.331    -117.654
  C     -952.270    -263.243    -118.018
  O     -953.029    -264.027    -117.104
  C     -951.573    -262.110    -117.262
  O     -952.523    -261.065    -116.950
  C     -950.986    -262.531    -115.926
  O     -949.753    -263.213    -116.060
  C     -950.850    -261.184    -115.227
  O     -949.651    -260.509    -115.614
  C     -952.080    -260.421    -115.743
  N     -954.068    -257.770    -111.859
  C     -953.035    -257.509    -112.696
  N     -952.578    -258.261    -113.716
  C     -953.318    -259.370    -113.853
  C     -954.397    -259.775    -113.082
  C     -954.775    -258.916    -112.038
  N     -955.809    -259.180    -111.162
  N     -954.874    -260.999    -113.511
  C     -954.099    -261.340    -114.520
  N     -953.155    -260.382    -114.771
  O     -952.720    -265.977    -118.664
  O     -954.222    -266.304    -116.611
  H     -949.664    -260.463    -116.594
  H     -952.828    -266.946    -118.683
  H     -952.519    -256.577    -112.520
  H     -954.188    -262.251    -115.094
  H     -951.840    -259.379    -116.002
  H     -950.838    -261.300    -114.142
  H     -951.708    -263.142    -115.368
  H     -950.799    -261.682    -117.918
  H     -952.938    -262.822    -118.775
  H     -951.537    -263.889    -118.508
  H     -955.977    -258.558    -110.405
  H     -956.265    -260.091    -111.224
  P     -949.721    -264.764    -115.675
  C     -947.526    -265.416    -116.944
  O     -948.180    -265.227    -115.691
  O     -950.343    -265.501    -116.947
  O     -950.445    -265.109    -114.417
  H     -950.863    -266.273    -116.657
  H     -946.514    -265.721    -116.776
  H     -947.535    -264.498    -117.493
  H     -948.038    -266.171    -117.503

 6  7  8  9  10  11  12  13  14  15  25  28  32  33  34  35 0
 6-311+G(2d,p)
 ****
 36  37  40 0
 6-311+G(2d,p)
 ****
 1  2  3  4  5  16  17  18  19  20  21  22  23  24 0
 3-21G
 ****
 26  27  29  30  31  38  39 41  42  43  44  45  46  47  48 0
 3-21G
 ****


