%nproc=1
%NoSave
%Mem=1900MB
#P OB98/GEN NMR

erre ene a

0 1
  C       42.489     -57.818     123.304
  O       43.636     -57.805     122.470
  H       42.686     -58.469     124.160
  H       41.622     -58.210     122.764
  H       42.274     -56.810     123.668
  P       43.540     -57.043     121.063
  C       43.140     -59.313     119.888
  O       42.663     -57.991     120.117
  C       42.975     -59.683     118.415
  O       41.579     -59.693     118.057
  C       43.642     -58.691     117.471
  O       45.044     -58.874     117.452
  C       42.923     -59.006     116.177
  O       43.468     -60.173     115.544
  C       41.483     -59.271     116.676
  N       40.616     -58.104     116.541
  C       40.318     -57.705     115.234
  O       40.775     -58.327     114.275
  N       39.526     -56.598     115.053
  C       39.059     -55.958     116.078
  N       38.285     -54.867     115.826
  C       39.334     -56.352     117.473
  C       40.114     -57.423     117.630
  O       44.830     -56.586     120.453
  O       42.553     -55.817     121.365
  H       44.338     -59.902     115.191
  H       43.057     -55.038     121.665
  H       38.922     -55.791     118.297
  H       40.363     -57.783     118.622
  H       41.029     -60.101     116.122
  H       42.995     -58.184     115.467
  H       43.387     -57.666     117.761
  H       43.369     -60.698     118.268
  H       38.132     -54.627     114.857
  H       42.546     -59.984     120.516
  H       37.792     -54.351     116.542
  H       44.192     -59.401     120.183
  P       46.011     -57.726     116.890
  C       46.510     -59.142     114.785
  O       45.998     -57.905     115.291
  O       47.362     -57.664     117.517
  O       45.148     -56.390     117.099
  H       45.120     -56.124     118.054
  H       46.449     -59.143     113.717
  H       45.932     -59.954     115.176
  H       47.531     -59.254     115.084

 6  7  8  9  10  11  12  13  14  15  16  26  30  31  32  33  35 0
 6-311+G(2d,p)
 ****
 37  38 0
 6-311+G(2d,p)
 ****
 1  2  3  4  5  17  18  19  20  21  22  23  24  25 0
 3-21G
 ****
 27  28  29  34  36  39  40  41  42  43  44  45  46 0
 3-21G
 ****


