%nproc=1
%NoSave
%Mem=1900MB
#P OB98/GEN NMR

erre ene a

0 1
  C     -147.946    -246.014    -337.341
  O     -149.329    -246.231    -337.538
  H     -147.469    -246.969    -337.105
  H     -147.795    -245.330    -336.499
  H     -147.485    -245.601    -338.244
  P     -150.180    -244.990    -338.094
  C     -151.252    -244.818    -335.732
  O     -150.628    -244.133    -336.809
  C     -150.671    -244.345    -334.402
  O     -149.235    -244.507    -334.395
  C     -150.936    -242.873    -334.092
  O     -152.230    -242.678    -333.530
  C     -149.846    -242.607    -333.063
  O     -150.232    -243.160    -331.788
  C     -148.664    -243.394    -333.648
  N     -144.768    -240.153    -333.881
  C     -145.382    -240.729    -332.786
  N     -144.893    -240.386    -331.570
  N     -146.389    -241.561    -332.861
  C     -146.782    -241.806    -334.136
  C     -146.252    -241.303    -335.305
  C     -145.137    -240.385    -335.203
  O     -144.548    -239.865    -336.144
  N     -146.910    -241.786    -336.405
  C     -147.843    -242.570    -335.904
  N     -147.812    -242.612    -334.531
  O     -151.551    -245.670    -338.581
  O     -149.541    -244.217    -339.197
  H     -151.161    -242.894    -331.636
  H     -151.868    -245.203    -339.377
  H     -144.009    -239.510    -333.763
  H     -148.563    -243.129    -336.488
  H     -148.017    -243.815    -332.872
  H     -149.666    -241.544    -332.909
  H     -144.156    -239.711    -331.440
  H     -150.772    -242.240    -334.971
  H     -145.302    -240.822    -330.755
  H     -151.078    -244.988    -333.606
  H     -151.079    -245.895    -335.844
  H     -152.333    -244.627    -335.765
  P     -153.352    -242.008    -334.466
  C     -154.116    -240.553    -332.457
  O     -153.669    -240.579    -333.806
  O     -154.661    -242.870    -334.135
  O     -153.034    -242.005    -335.925
  H     -155.296    -242.815    -334.875
  H     -154.285    -239.540    -332.157
  H     -153.372    -240.992    -331.826
  H     -155.027    -241.107    -332.373

 6  7  8  9  10  11  12  13  14  15  26  29  33  34 0
 6-311+G(2d,p)
 ****
 36  38  39  40  41 0
 6-311+G(2d,p)
 ****
 1  2  3  4  5  16  17  18  19  20  21  22  23  24  25 0
 3-21G
 ****
 27  28  30  31  32  35  37  42  43  44  45  46  47 0
 3-21G
 ****
 48  49 0
 3-21G
 ****


