%nproc=1
%NoSave
%Mem=1900MB
#P OB98/GEN NMR

erre ene a

0 1
  C      255.837    1117.147     338.720
  O      256.972    1117.468     337.909
  P      258.353    1117.859     338.606
  C      258.670    1120.086     337.339
  O      259.202    1118.806     337.618
  C      259.786    1121.075     336.938
  O      260.645    1121.341     338.072
  C      260.666    1120.535     335.808
  O      260.817    1121.449     334.717
  C      261.950    1120.130     336.506
  O      263.080    1120.108     335.648
  C      262.003    1121.105     337.685
  N      262.811    1120.584     338.784
  C      264.167    1120.876     338.763
  O      264.713    1121.484     337.815
  N      264.905    1120.413     339.816
  C      264.452    1119.627     340.823
  O      265.160    1119.192     341.733
  C      263.012    1119.295     340.788
  C      262.270    1119.784     339.774
  O      259.118    1116.728     339.214
  O      257.894    1118.911     339.751
  H      263.148    1120.998     335.209
  H      258.441    1118.731     340.546
  H      265.900    1120.630     339.834
  H      262.614    1118.656     341.548
  H      261.217    1119.538     339.701
  H      262.442    1122.071     337.387
  H      261.823    1119.112     336.897
  H      260.216    1119.641     335.323
  H      259.296    1122.004     336.630
  H      258.164    1120.459     338.233
  H      257.890    1119.993     336.568
  P      260.255    1121.225     333.230
  C      262.531    1122.026     332.270
  O      261.106    1122.116     332.228
  O      258.770    1121.336     333.078
  O      260.720    1119.727     332.889
  H      260.015    1119.251     332.411
  H      262.934    1122.914     331.818
  H      262.846    1121.159     331.695
  H      262.881    1121.953     333.298
  H      255.004    1116.911     338.091
  H      255.591    1117.986     339.337
  H      256.067    1116.304     339.338

 3  4  5  6  7  8  9  10  11  12  13  23  28  29  30  31  32 0
 6-311+G(2d,p)
 ****
 33  34 0
 6-311+G(2d,p)
 ****
 1  2  14  15  16  17  18  19  20  21  22  24  25  26  27 0
 3-21G
 ****
 35  36  37  38  39  40  41  42  43  44  45 0
 3-21G
 ****


