%nproc=1
%NoSave
%Mem=1900MB
#P OB98/GEN NMR

erre ene a

0 1
  C       69.449    -109.823     -12.187
  O       70.816    -109.963     -12.515
  H       69.368    -109.405     -11.179
  H       68.956    -110.799     -12.205
  H       68.958    -109.146     -12.892
  P       71.142    -110.621     -13.942
  C       71.448    -112.943     -12.832
  O       72.024    -111.929     -13.645
  C       72.509    -113.965     -12.424
  O       71.952    -114.944     -11.520
  C       73.119    -114.739     -13.589
  O       74.164    -114.002     -14.198
  C       73.616    -115.991     -12.882
  O       74.876    -115.744     -12.216
  C       72.504    -116.245     -11.857
  N       71.331    -121.019     -13.021
  C       72.539    -120.463     -12.659
  N       73.607    -121.292     -12.632
  N       72.699    -119.197     -12.363
  C       71.561    -118.474     -12.491
  C       70.303    -118.911     -12.841
  C       70.130    -120.322     -13.112
  O       69.072    -120.890     -13.354
  N       69.403    -117.876     -12.844
  C       70.121    -116.814     -12.526
  N       71.439    -117.125     -12.311
  O       72.203    -109.605     -14.590
  O       69.970    -110.818     -14.841
  H       75.560    -115.567     -12.887
  H       72.024    -109.536     -15.546
  H       71.262    -122.006     -13.207
  H       69.735    -115.808     -12.430
  H       72.891    -116.681     -10.929
  H       73.796    -116.805     -13.585
  H       73.611    -122.179     -13.117
  H       72.350    -115.018     -14.323
  H       74.506    -120.866     -12.439
  H       73.289    -113.424     -11.871
  H       70.657    -113.447     -13.400
  H       71.013    -112.486     -11.939
  P       73.903    -113.368     -15.645
  C       75.675    -114.713     -16.983
  O       75.275    -113.447     -16.474
  O       73.746    -111.805     -15.329
  O       72.698    -113.895     -16.347
  H       72.809    -111.546     -15.390
  H       76.601    -114.610     -17.509
  H       74.925    -115.082     -17.651
  H       75.800    -115.400     -16.172

 6  7  8  9  10  11  12  13  14  15  26  29  33  34 0
 6-311+G(2d,p)
 ****
 36  38  39  40  41 0
 6-311+G(2d,p)
 ****
 1  2  3  4  5  16  17  18  19  20  21  22  23  24  25 0
 3-21G
 ****
 27  28  30  31  32  35  37  42  43  44  45  46  47 0
 3-21G
 ****
 48  49 0
 3-21G
 ****


