%nproc=1
%NoSave
%Mem=1900MB
#P OB98/GEN NMR

erre ene a

0 1
  C     2222.714    -298.537    -114.854
  O     2223.717    -299.047    -115.772
  P     2225.159    -298.324    -115.824
  C     2226.559    -300.493    -115.748
  O     2226.262    -299.265    -115.076
  C     2228.043    -300.868    -115.505
  O     2228.941    -299.749    -115.932
  C     2228.361    -301.143    -114.014
  O     2229.380    -302.132    -113.899
  C     2228.963    -299.788    -113.566
  O     2229.746    -299.987    -112.376
  C     2229.748    -299.410    -114.829
  N     2231.927    -295.446    -112.370
  C     2231.894    -296.767    -112.081
  N     2231.311    -297.767    -112.808
  C     2230.754    -297.271    -113.938
  C     2230.750    -295.954    -114.382
  C     2231.384    -295.021    -113.551
  N     2231.435    -293.685    -113.847
  N     2230.073    -295.855    -115.605
  C     2229.647    -297.085    -115.849
  N     2230.065    -297.998    -114.851
  O     2225.198    -296.906    -115.378
  O     2225.597    -298.462    -117.381
  H     2230.106    -299.165    -112.101
  H     2225.934    -297.608    -117.673
  H     2232.350    -297.084    -111.159
  H     2229.053    -297.311    -116.695
  H     2230.693    -299.962    -114.906
  H     2228.168    -299.089    -113.388
  H     2227.509    -301.434    -113.422
  H     2228.299    -301.722    -116.123
  H     2226.405    -300.390    -116.835
  H     2231.801    -293.058    -113.172
  H     2230.905    -293.286    -114.617
  H     2225.898    -301.287    -115.399
  P     2228.951    -303.508    -113.178
  C     2229.985    -305.235    -114.916
  O     2228.784    -304.604    -114.302
  O     2227.769    -303.337    -112.241
  O     2230.313    -303.907    -112.413
  H     2231.095    -303.927    -112.960
  H     2229.625    -305.977    -115.585
  H     2230.580    -305.599    -114.122
  H     2230.482    -304.417    -115.499
  H     2221.822    -299.121    -114.941
  H     2222.497    -297.517    -115.093
  H     2223.084    -298.598    -113.852

 3  4  5  6  7  8  9  10  11  12  22  25  29  30  31  32 0
 6-311+G(2d,p)
 ****
 33  36  37 0
 6-311+G(2d,p)
 ****
 1  2  13  14  15  16  17  18  19  20  21  23  24  26 0
 3-21G
 ****
 27  28  34  35  38  39  40  41  42  43  44  45  46  47  48 0
 3-21G
 ****


