%nproc=1
%NoSave
%Mem=1900MB
#P OB98/GEN NMR

erre ene a

0 1
  C       70.211     661.396    -643.051
  O       71.390     660.957    -642.392
  P       72.551     660.223    -643.211
  C       74.243     662.143    -642.987
  O       73.959     660.795    -642.657
  C       75.500     662.640    -642.269
  O       75.163     663.003    -640.910
  C       76.645     661.604    -642.187
  O       77.870     662.342    -642.273
  C       76.478     661.023    -640.796
  O       77.666     660.403    -640.307
  C       76.065     662.287    -640.030
  N       76.286     659.451    -635.760
  C       77.083     659.507    -636.852
  N       76.942     660.277    -637.962
  C       75.839     661.050    -637.878
  C       74.927     661.084    -636.839
  C       75.176     660.267    -635.729
  N       74.394     660.212    -634.593
  N       73.894     661.967    -637.142
  C       74.196     662.440    -638.330
  N       75.392     661.967    -638.787
  O       72.414     660.261    -644.694
  O       72.527     658.727    -642.661
  H       77.540     660.190    -639.367
  H       72.133     658.129    -643.342
  H       77.943     658.850    -636.832
  H       73.591     663.126    -638.907
  H       76.921     662.940    -639.802
  H       75.693     660.271    -640.798
  H       76.608     660.840    -642.980
  H       75.849     663.561    -642.769
  H       73.394     662.759    -642.673
  H       74.740     659.697    -633.803
  H       73.730     660.977    -634.434
  H       74.357     662.246    -644.076
  P       79.190     661.652    -642.878
  C       79.104     662.464    -645.292
  O       79.718     662.629    -644.035
  O       79.051     660.216    -643.239
  O       80.285     661.861    -641.700
  H       81.035     661.245    -641.846
  H       79.540     661.603    -645.817
  H       79.279     663.372    -645.893
  H       78.035     662.304    -645.199
  H       69.558     661.860    -642.342
  H       69.717     660.557    -643.495
  H       70.470     662.102    -643.813

 3  4  5  6  7  8  9  10  11  12  22  25  29  30  31  32 0
 6-311+G(2d,p)
 ****
 33  36  37 0
 6-311+G(2d,p)
 ****
 1  2  13  14  15  16  17  18  19  20  21  23  24  26 0
 3-21G
 ****
 27  28  34  35  38  39  40  41  42  43  44  45  46  47  48 0
 3-21G
 ****


