%nproc=1
%NoSave
%Mem=1900MB
#P OB98/GEN NMR

erre ene a

0 1
  C      153.937    -287.516    -162.692
  O      153.835    -286.352    -163.520
  P      152.536    -285.420    -163.408
  C      150.243    -285.244    -164.555
  O      151.339    -286.087    -164.244
  C      149.398    -285.781    -165.725
  O      150.194    -285.855    -166.937
  C      148.799    -287.173    -165.480
  O      147.512    -287.188    -166.112
  C      149.768    -288.078    -166.216
  O      149.215    -289.354    -166.496
  C      150.089    -287.203    -167.441
  N      151.301    -287.621    -168.123
  C      151.253    -288.827    -168.825
  O      150.252    -289.540    -168.773
  N      152.354    -289.205    -169.556
  C      153.456    -288.520    -169.461
  N      154.520    -288.917    -170.207
  C      153.599    -287.346    -168.574
  C      152.487    -286.939    -167.962
  O      152.764    -283.971    -163.678
  O      152.070    -285.652    -161.885
  H      149.817    -289.839    -167.096
  H      151.697    -284.816    -161.541
  H      154.553    -286.857    -168.454
  H      152.481    -286.085    -167.307
  H      149.251    -287.228    -168.157
  H      150.670    -288.223    -165.605
  H      148.676    -287.420    -164.419
  H      148.588    -285.057    -165.910
  H      154.422    -289.742    -170.789
  H      150.614    -284.245    -164.807
  H      155.402    -288.401    -170.222
  H      149.626    -285.111    -163.649
  P      146.247    -287.753    -165.300
  C      145.322    -290.110    -164.684
  O      146.217    -289.345    -165.471
  O      145.026    -287.305    -166.241
  O      146.056    -287.203    -163.916
  H      144.215    -287.223    -165.694
  H      145.240    -291.110    -165.117
  H      144.330    -289.651    -164.666
  H      145.705    -290.195    -163.660
  H      154.860    -288.018    -162.895
  H      153.120    -288.175    -162.900
  H      153.908    -287.225    -161.663

 3  4  5  6  7  8  9  10  11  12  13  23  27  28  29  30  32 0
 6-311+G(2d,p)
 ****
 34  35 0
 6-311+G(2d,p)
 ****
 1  2  14  15  16  17  18  19  20  21  22  24  25  26 0
 3-21G
 ****
 31  33  36  37  38  39  40  41  42  43  44  45  46 0
 3-21G
 ****


