%nproc=1
%NoSave
%Mem=1900MB
#P OB98/GEN NMR

erre ene a

0 1
  C        2.309     264.259      31.813
  O        1.872     265.253      32.727
  P        1.997     266.795      32.280
  C        4.185     267.132      33.660
  O        2.845     267.533      33.428
  C        4.772     267.886      34.854
  O        4.918     269.283      34.487
  C        3.921     267.838      36.130
  O        4.830     267.870      37.242
  C        3.144     269.139      36.070
  O        2.656     269.548      37.344
  C        4.188     270.066      35.456
  N        2.109     274.621      36.188
  C        2.528     273.681      37.111
  N        2.429     274.033      38.408
  N        2.999     272.504      36.788
  C        3.052     272.301      35.449
  C        2.633     273.135      34.442
  C        2.150     274.446      34.810
  O        1.850     275.341      34.020
  N        2.766     272.542      33.213
  C        3.336     271.381      33.471
  N        3.572     271.212      34.812
  O        0.510     267.346      32.491
  O        2.507     267.030      30.893
  H        2.032     268.862      37.659
  H       -0.006     267.298      31.662
  H        1.772     275.520      36.493
  H        3.605     270.639      32.741
  H        4.902     270.449      36.198
  H        2.277     269.022      35.405
  H        2.103     274.934      38.729
  H        3.274     266.961      36.193
  H        2.760     273.377      39.105
  H        5.774     267.491      35.051
  H        4.780     267.359      32.771
  H        4.217     266.051      33.827
  P        4.456     267.003      38.536
  C        3.317     268.685      40.149
  O        4.497     267.987      39.800
  O        5.765     266.094      38.738
  O        3.234     266.158      38.395
  H        5.505     265.230      39.122
  H        3.369     268.973      41.203
  H        2.424     268.071      39.998
  H        3.240     269.591      39.538
  H        2.166     263.290      32.244
  H        3.347     264.404      31.598
  H        1.744     264.334      30.908

 3  4  5  6  7  8  9  10  11  12  23  26  30  31 0
 6-311+G(2d,p)
 ****
 33  35  36  37  38 0
 6-311+G(2d,p)
 ****
 1  2  13  14  15  16  17  18  19  20  21  22  24  25 0
 3-21G
 ****
 27  28  29  32  34  39  40  41  42  43  44  45  46  47  48  49 0
 3-21G
 ****


