%nproc=1
%NoSave
%Mem=1900MB
#P OB98/GEN NMR

erre ene a

0 1
  C     -541.666     348.542      69.349
  O     -541.021     348.921      70.548
  H     -540.911     348.395      68.576
  H     -542.350     349.332      69.026
  H     -542.216     347.605      69.481
  P     -541.887     349.022      71.893
  C     -541.278     346.721      72.894
  O     -541.136     348.130      72.994
  C     -541.615     346.111      74.260
  O     -541.998     344.711      74.062
  C     -540.446     346.122      75.265
  O     -541.022     346.215      76.577
  C     -539.847     344.748      75.023
  O     -538.913     344.381      76.006
  C     -541.138     343.925      74.914
  N     -540.979     342.577      74.384
  C     -541.205     341.511      75.243
  O     -541.537     341.623      76.424
  N     -541.036     340.261      74.702
  C     -540.687     339.984      73.412
  O     -540.582     338.848      72.974
  C     -540.455     341.156      72.551
  C     -540.611     342.373      73.065
  O     -543.348     348.750      71.748
  O     -541.614     350.516      72.405
  H     -542.379     351.081      72.182
  H     -539.340     344.424      76.886
  H     -541.202     339.477      75.313
  H     -540.164     340.971      71.526
  H     -540.459     343.257      72.448
  H     -541.624     343.866      75.896
  H     -539.300     344.741      74.073
  H     -539.754     346.952      75.112
  H     -542.494     346.625      74.669
  H     -540.327     346.308      72.530
  H     -542.065     346.489      72.171
  P     -540.741     347.435      77.582
  C     -542.125     349.594      77.259
  O     -542.103     348.264      77.755
  O     -539.570     348.278      77.196
  O     -540.517     346.756      79.015
  H     -539.953     347.333      79.565
  H     -543.087     350.026      77.439
  H     -541.929     349.586      76.207
  H     -541.375     350.173      77.757

 6  7  8  9  10  11  12  13  14  15  16  27  31  32  33  34  35 0
 6-311+G(2d,p)
 ****
 36  37 0
 6-311+G(2d,p)
 ****
 1  2  3  4  5  17  18  19  20  21  22  23  24  25 0
 3-21G
 ****
 26  28  29  30  38  39  40  41  42  43  44  45 0
 3-21G
 ****


