%nproc=1
%NoSave
%Mem=1900MB
#P OB98/GEN NMR

erre ene a

0 1
  C     -482.878    -388.006      88.856
  O     -483.390    -388.608      90.057
  P     -484.259    -389.957      90.074
  C     -486.407    -388.567      89.683
  O     -485.624    -389.680      89.274
  C     -487.444    -388.197      88.610
  O     -488.207    -389.373      88.232
  C     -488.496    -387.189      89.045
  O     -487.985    -385.869      89.139
  C     -489.544    -387.373      87.955
  O     -489.229    -386.599      86.779
  C     -489.419    -388.878      87.630
  N     -490.572    -389.645      88.091
  C     -491.781    -389.434      87.397
  O     -491.848    -388.570      86.516
  N     -492.875    -390.192      87.749
  C     -492.799    -391.008      88.755
  N     -493.909    -391.741      89.045
  C     -491.589    -391.162      89.589
  C     -490.529    -390.456      89.198
  O     -484.467    -390.536      91.439
  O     -483.453    -390.990      89.141
  H     -483.661    -391.902      89.403
  H     -489.709    -387.010      86.035
  H     -491.594    -391.818      90.452
  H     -489.596    -390.508      89.752
  H     -489.304    -389.021      86.554
  H     -490.544    -387.061      88.283
  H     -488.916    -387.495      90.012
  H     -486.892    -387.833      87.726
  H     -494.719    -391.629      88.448
  H     -485.737    -387.715      89.839
  H     -493.942    -392.432      89.787
  H     -486.902    -388.803      90.639
  P     -487.882    -385.236      90.611
  C     -489.804    -383.505      90.222
  O     -489.337    -384.631      90.961
  O     -486.978    -383.926      90.388
  O     -487.307    -386.134      91.646
  H     -486.373    -383.814      91.157
  H     -490.896    -383.531      90.224
  H     -489.439    -383.523      89.192
  H     -489.467    -382.584      90.719
  H     -482.334    -387.119      89.106
  H     -483.692    -387.755      88.208
  H     -482.227    -388.696      88.360

 3  4  5  6  7  8  9  10  11  12  13  24  27  28  29  30  32 0
 6-311+G(2d,p)
 ****
 34  35 0
 6-311+G(2d,p)
 ****
 1  2  14  15  16  17  18  19  20  21  22  23  25  26 0
 3-21G
 ****
 31  33  36  37  38  39  40  41  42  43  44  45  46 0
 3-21G
 ****


