%nproc=1
%NoSave
%Mem=1900MB
#P OB98/GEN NMR

erre ene a

0 1
  C      145.739     398.936    -400.846
  O      145.552     399.673    -402.037
  H      146.751     399.124    -400.474
  H      145.633     397.866    -401.045
  H      145.023     399.246    -400.079
  P      144.111     399.657    -402.743
  C      144.488     397.501    -404.094
  O      143.759     398.117    -403.040
  C      143.973     396.082    -404.345
  O      144.099     395.322    -403.117
  C      142.506     396.026    -404.788
  O      142.360     394.987    -405.757
  C      141.768     395.644    -403.515
  O      140.536     394.970    -403.786
  C      142.804     394.769    -402.807
  N      141.327     391.869    -398.936
  C      141.510     391.552    -400.268
  N      141.234     390.276    -400.638
  N      141.921     392.410    -401.165
  C      142.170     393.639    -400.660
  C      142.025     394.084    -399.366
  C      141.556     393.126    -398.377
  O      141.363     393.350    -397.187
  N      142.354     395.410    -399.250
  C      142.691     395.773    -400.471
  N      142.589     394.742    -401.367
  O      143.962     400.565    -403.924
  O      143.100     400.044    -401.563
  H      140.762     394.111    -404.198
  H      142.845     400.982    -401.623
  H      140.997     391.173    -398.290
  H      143.010     396.772    -400.766
  H      142.773     393.724    -403.152
  H      141.547     396.544    -402.932
  H      140.932     389.562    -399.993
  H      142.150     396.977    -405.202
  H      141.385     390.020    -401.599
  H      144.624     395.601    -405.084
  H      145.544     397.469    -403.807
  H      144.388     398.103    -405.006
  P      142.512     395.355    -407.311
  C      140.212     396.254    -408.057
  O      141.530     396.585    -407.637
  O      142.423     394.203    -408.258
  O      143.968     396.040    -407.369
  H      144.357     395.871    -408.250
  H      139.660     397.152    -408.242
  H      139.725     395.688    -407.291
  H      140.259     395.673    -408.954

 6  7  8  9  10  11  12  13  14  15  26  29  33  34 0
 6-311+G(2d,p)
 ****
 36  38  39  40  41 0
 6-311+G(2d,p)
 ****
 1  2  3  4  5  16  17  18  19  20  21  22  23  24  25 0
 3-21G
 ****
 27  28  30  31  32  35  37  42  43  44  45  46  47 0
 3-21G
 ****
 48  49 0
 3-21G
 ****


