%nproc=1
%NoSave
%Mem=1900MB
#P OB98/GEN NMR

erre ene a

0 1
  C      -13.240     -12.783      -5.260
  O      -14.502     -12.291      -4.843
  P      -14.959     -10.847      -5.378
  C      -13.983      -9.618      -3.299
  O      -13.972      -9.774      -4.708
  C      -12.825      -8.725      -2.848
  O      -11.585      -9.295      -3.340
  C      -12.893      -7.281      -3.356
  O      -12.297      -6.455      -2.348
  C      -12.003      -7.307      -4.584
  O      -11.525      -6.015      -4.945
  C      -10.923      -8.282      -4.129
  N       -7.155      -7.787      -7.464
  C       -7.621      -6.893      -6.517
  N       -6.946      -5.729      -6.408
  N       -8.652      -7.122      -5.747
  C       -9.215      -8.335      -5.960
  C       -8.870      -9.286      -6.890
  C       -7.706      -9.037      -7.709
  O       -7.207      -9.834      -8.499
  N       -9.732     -10.350      -6.865
  C      -10.547     -10.078      -5.866
  N      -10.245      -8.891      -5.257
  O      -16.346     -10.610      -4.622
  O      -15.084     -10.717      -6.864
  H      -12.290      -5.491      -5.259
  H      -17.101     -10.893      -5.174
  H       -6.344      -7.562      -8.015
  H      -11.363     -10.701      -5.537
  H      -10.160      -7.803      -3.502
  H      -12.563      -7.709      -5.437
  H       -6.126      -5.500      -6.947
  H      -13.908      -6.941      -3.576
  H       -7.247      -5.071      -5.699
  H      -12.782      -8.744      -1.753
  H      -13.866     -10.602      -2.833
  H      -14.944      -9.199      -2.983
  P      -12.999      -5.054      -2.014
  C      -11.365      -3.599      -3.398
  O      -12.691      -4.057      -3.226
  O      -12.094      -4.477      -0.824
  O      -14.429      -5.154      -1.592
  H      -12.645      -3.945      -0.222
  H      -11.233      -3.283      -4.436
  H      -10.635      -4.382      -3.173
  H      -11.189      -2.741      -2.744
  H      -13.073     -13.747      -4.828
  H      -12.472     -12.111      -4.940
  H      -13.223     -12.862      -6.327

 3  4  5  6  7  8  9  10  11  12  23  26  30  31 0
 6-311+G(2d,p)
 ****
 33  35  36  37  38 0
 6-311+G(2d,p)
 ****
 1  2  13  14  15  16  17  18  19  20  21  22  24  25 0
 3-21G
 ****
 27  28  29  32  34  39  40  41  42  43  44  45  46  47  48  49 0
 3-21G
 ****


