%nproc=1
%NoSave
%Mem=1900MB
#P OB98/GEN NMR

erre ene a

0 1
  C      125.798    -117.581     -95.356
  O      125.347    -117.083     -96.604
  P      124.509    -115.713     -96.608
  C      121.972    -115.115     -96.651
  O      122.958    -116.123     -96.501
  C      120.574    -115.691     -96.408
  O      120.268    -116.626     -97.475
  C      120.410    -116.447     -95.085
  O      119.060    -116.252     -94.653
  C      120.613    -117.895     -95.489
  O      120.050    -118.812     -94.556
  C      119.957    -117.896     -96.864
  N      118.860    -122.395     -98.911
  C      118.133    -121.627     -98.017
  N      116.916    -122.101     -97.669
  N      118.560    -120.495     -97.511
  C      119.784    -120.142     -97.965
  C      120.616    -120.835     -98.816
  C      120.121    -122.063     -99.394
  O      120.691    -122.729    -100.253
  N      121.820    -120.199     -98.969
  C      121.686    -119.084     -98.277
  N      120.452    -118.984     -97.690
  O      124.662    -115.204     -98.113
  O      124.938    -114.686     -95.606
  H      120.545    -118.727     -93.717
  H      125.409    -114.578     -98.198
  H      118.475    -123.248     -99.276
  H      122.436    -118.317     -98.172
  H      118.865    -117.992     -96.809
  H      121.686    -118.112     -95.564
  H      116.514    -122.950     -98.043
  H      121.109    -116.123     -94.306
  H      116.350    -121.541     -97.044
  H      119.849    -114.874     -96.471
  H      122.014    -114.723     -97.675
  H      122.179    -114.292     -95.959
  P      118.723    -116.497     -93.105
  C      117.613    -118.588     -92.056
  O      118.652    -118.078     -92.868
  O      117.188    -116.041     -93.002
  O      119.572    -115.725     -92.147
  H      117.014    -115.665     -92.118
  H      117.455    -119.641     -92.310
  H      116.675    -118.046     -92.208
  H      117.904    -118.520     -91.005
  H      126.337    -118.492     -95.509
  H      124.957    -117.767     -94.721
  H      126.440    -116.860     -94.895

 3  4  5  6  7  8  9  10  11  12  23  26  30  31 0
 6-311+G(2d,p)
 ****
 33  35  36  37  38 0
 6-311+G(2d,p)
 ****
 1  2  13  14  15  16  17  18  19  20  21  22  24  25 0
 3-21G
 ****
 27  28  29  32  34  39  40  41  42  43  44  45  46  47  48  49 0
 3-21G
 ****


