%nproc=1
%NoSave
%Mem=1900MB
#P OB98/GEN NMR

erre ene a

0 1
  C     -301.146    -282.023    -257.979
  O     -302.284    -281.829    -258.829
  P     -302.189    -281.832    -260.429
  C     -304.063    -283.514    -260.988
  O     -302.659    -283.258    -260.983
  C     -304.410    -284.755    -260.155
  O     -303.984    -284.587    -258.791
  C     -305.902    -285.073    -260.079
  O     -306.359    -285.662    -261.282
  C     -305.942    -285.994    -258.865
  O     -305.585    -287.340    -259.218
  C     -304.860    -285.368    -257.954
  N     -305.436    -284.563    -256.883
  C     -305.418    -285.122    -255.604
  O     -304.988    -286.268    -255.427
  N     -305.908    -284.383    -254.553
  C     -306.440    -283.222    -254.779
  N     -306.908    -282.531    -253.701
  C     -306.559    -282.635    -256.122
  C     -306.037    -283.352    -257.124
  O     -300.866    -281.381    -260.959
  O     -303.351    -280.841    -260.916
  H     -306.306    -287.681    -259.778
  H     -303.075    -280.420    -261.754
  H     -307.032    -281.674    -256.275
  H     -306.074    -282.991    -258.141
  H     -304.236    -286.150    -257.507
  H     -306.929    -286.033    -258.399
  H     -306.464    -284.159    -259.863
  H     -303.859    -285.607    -260.577
  H     -306.799    -282.960    -252.791
  H     -304.379    -283.676    -262.026
  H     -307.330    -281.616    -253.768
  H     -304.581    -282.636    -260.592
  P     -307.122    -284.764    -262.366
  C     -306.358    -285.977    -264.496
  O     -306.263    -284.796    -263.717
  O     -307.531    -283.401    -261.907
  O     -308.408    -285.647    -262.750
  H     -309.144    -285.047    -262.976
  H     -306.078    -285.742    -265.527
  H     -307.377    -286.379    -264.482
  H     -305.664    -286.726    -264.102
  H     -301.454    -281.980    -256.955
  H     -300.425    -281.255    -258.167
  H     -300.709    -282.979    -258.180

 3  4  5  6  7  8  9  10  11  12  13  23  27  28  29  30  32 0
 6-311+G(2d,p)
 ****
 34  35 0
 6-311+G(2d,p)
 ****
 1  2  14  15  16  17  18  19  20  21  22  24  25  26 0
 3-21G
 ****
 31  33  36  37  38  39  40  41  42  43  44  45  46 0
 3-21G
 ****


