%nproc=1
%NoSave
%Mem=1900MB
#P OB98/GEN NMR

erre ene a

0 1
  C       59.492      77.902     -77.217
  O       59.581      76.476     -77.321
  P       60.991      75.858     -77.771
  C       61.199      73.601     -76.453
  O       60.824      74.266     -77.651
  C       60.569      72.210     -76.408
  O       59.145      72.303     -76.166
  C       60.712      71.421     -77.700
  O       62.034      70.932     -77.868
  C       59.650      70.347     -77.500
  O       60.153      69.297     -76.661
  C       58.540      71.129     -76.764
  N       57.420      71.482     -77.625
  C       56.283      70.692     -77.502
  O       56.215      69.727     -76.734
  N       55.228      71.028     -78.306
  C       55.211      72.037     -79.222
  O       54.232      72.298     -79.908
  C       56.461      72.810     -79.344
  C       57.490      72.505     -78.555
  O       61.914      76.256     -76.527
  O       61.457      76.366     -79.093
  H       61.441      76.232     -75.678
  H       60.946      68.941     -77.109
  H       54.390      70.472     -78.222
  H       56.489      73.603     -80.082
  H       58.421      73.060     -78.632
  H       58.152      70.531     -75.930
  H       59.333      69.892     -78.446
  H       60.442      72.056     -78.556
  H       61.025      71.657     -75.575
  H       60.863      74.177     -75.584
  H       62.289      73.544     -76.409
  P       62.551      70.732     -79.377
  C       63.668      73.065     -79.755
  O       63.831      71.682     -79.547
  O       61.398      71.480     -80.199
  O       62.749      69.303     -79.759
  H       61.140      72.331     -79.805
  H       64.605      73.572     -79.499
  H       62.867      73.474     -79.130
  H       63.442      73.255     -80.807
  H       58.504      78.176     -76.910
  H       59.706      78.343     -78.168
  H       60.200      78.252     -76.495

 3  4  5  6  7  8  9  10  11  12  13  24  28  29  30  31  32 0
 6-311+G(2d,p)
 ****
 33  34 0
 6-311+G(2d,p)
 ****
 1  2  14  15  16  17  18  19  20  21  22  23  25  26  27 0
 3-21G
 ****
 35  36  37  38  39  40  41  42  43  44  45 0
 3-21G
 ****


