%nproc=1
%NoSave
%Mem=1900MB
#P OB98/GEN NMR

erre ene a

0 1
  C      113.532     -36.767     -66.002
  O      112.252     -37.062     -66.517
  H      114.206     -36.557     -66.836
  H      113.919     -37.627     -65.450
  H      113.493     -35.891     -65.349
  P      111.056     -37.251     -65.463
  C      110.515     -34.736     -65.107
  O      110.086     -35.982     -65.637
  C      109.310     -33.843     -64.807
  O      109.705     -32.836     -63.839
  C      108.757     -33.122     -66.039
  O      107.331     -33.082     -65.943
  C      109.312     -31.715     -65.909
  O      108.514     -30.744     -66.586
  C      109.376     -31.545     -64.385
  N      110.351     -30.528     -64.000
  C      109.922     -29.199     -64.041
  O      108.773     -28.929     -64.398
  N      110.814     -28.204     -63.735
  C      112.052     -28.504     -63.494
  N      112.896     -27.471     -63.228
  C      112.567     -29.887     -63.508
  C      111.669     -30.840     -63.757
  O      111.760     -36.982     -64.052
  O      110.363     -38.571     -65.511
  H      107.611     -30.765     -66.202
  H      111.347     -37.511     -63.344
  H      113.613     -30.085     -63.326
  H      111.954     -31.885     -63.795
  H      108.393     -31.257     -63.988
  H      110.321     -31.677     -66.338
  H      109.047     -33.594     -66.981
  H      108.535     -34.455     -64.332
  H      112.509     -26.534     -63.246
  H      111.152     -34.237     -65.844
  H      113.886     -27.582     -63.071
  H      111.098     -34.910     -64.196
  P      106.515     -34.016     -66.959
  C      107.385     -36.261     -65.984
  O      106.262     -35.429     -66.246
  O      107.589     -34.350     -68.097
  O      105.296     -33.364     -67.526
  H      107.364     -33.874     -68.918
  H      107.058     -37.162     -65.509
  H      108.068     -35.746     -65.341
  H      107.874     -36.501     -66.905

 6  7  8  9  10  11  12  13  14  15  16  26  30  31  32  33  35 0
 6-311+G(2d,p)
 ****
 37  38 0
 6-311+G(2d,p)
 ****
 1  2  3  4  5  17  18  19  20  21  22  23  24  25 0
 3-21G
 ****
 27  28  29  34  36  39  40  41  42  43  44  45  46 0
 3-21G
 ****


