%nproc=1
%NoSave
%Mem=1900MB
#P OB98/GEN NMR

erre ene a

0 1
  C      175.389     -54.562     110.903
  O      174.601     -55.737     110.846
  H      174.972     -53.904     111.671
  H      175.361     -54.046     109.942
  H      176.422     -54.800     111.169
  P      175.082     -56.943     109.905
  C      172.654     -56.972     109.032
  O      173.766     -57.750     109.467
  C      171.609     -57.887     108.390
  O      172.121     -58.447     107.163
  C      171.219     -59.083     109.258
  O      170.345     -58.691     110.300
  C      170.601     -60.006     108.222
  O      169.247     -59.625     107.939
  C      171.515     -59.755     106.996
  N      172.529     -60.793     106.826
  C      172.097     -62.014     106.323
  O      170.914     -62.246     106.053
  N      173.060     -62.968     106.159
  C      174.365     -62.866     106.548
  O      175.168     -63.790     106.465
  C      174.763     -61.570     107.106
  C      173.844     -60.604     107.211
  O      176.187     -57.787     110.449
  O      175.521     -56.210     108.548
  H      168.964     -60.161     107.174
  H      176.494     -56.185     108.493
  H      172.759     -63.867     105.799
  H      175.793     -61.445     107.412
  H      174.123     -59.643     107.625
  H      170.913     -59.701     106.082
  H      170.582     -61.046     108.548
  H      172.118     -59.563     109.671
  H      170.724     -57.284     108.141
  H      173.000     -56.248     108.291
  H      172.227     -56.441     109.888
  P      170.758     -58.950     111.826
  C      168.523     -58.885     113.120
  O      169.709     -58.171     112.756
  O      172.193     -58.716     112.151
  O      170.372     -60.488     112.066
  H      171.178     -60.991     112.314
  H      167.908     -58.264     113.736
  H      168.791     -59.769     113.660
  H      167.984     -59.156     112.236

 6  7  8  9  10  11  12  13  14  15  16  26  31  32  33  34  35 0
 6-311+G(2d,p)
 ****
 36  37 0
 6-311+G(2d,p)
 ****
 1  2  3  4  5  17  18  19  20  21  22  23  24  25 0
 3-21G
 ****
 27  28  29  30  38  39  40  41  42  43  44  45 0
 3-21G
 ****


