%nproc=1
%NoSave
%Mem=1900MB
#P OB98/GEN NMR

erre ene a

0 1
  C      -36.163    -165.841      18.787
  O      -35.058    -165.368      19.529
  H      -36.819    -165.011      18.513
  H      -35.798    -166.316      17.872
  H      -36.722    -166.580      19.370
  P      -35.383    -164.601      20.901
  C      -34.888    -162.371      19.654
  O      -34.623    -163.191      20.783
  C      -34.633    -160.913      20.018
  O      -34.779    -160.075      18.849
  C      -35.609    -160.358      21.051
  O      -35.246    -160.696      22.379
  C      -35.464    -158.867      20.803
  O      -34.242    -158.390      21.393
  C      -35.372    -158.815      19.269
  N      -38.379    -155.596      16.660
  C      -37.116    -155.475      17.126
  N      -36.379    -156.387      17.792
  C      -37.068    -157.526      17.958
  C      -38.358    -157.799      17.534
  C      -39.030    -156.766      16.859
  N      -40.327    -156.874      16.411
  N      -38.733    -159.075      17.910
  C      -37.679    -159.566      18.531
  N      -36.659    -158.656      18.614
  O      -34.516    -165.387      21.993
  O      -36.827    -164.497      21.264
  H      -34.187    -157.435      21.204
  H      -34.807    -165.149      22.894
  H      -36.637    -154.518      16.941
  H      -37.609    -160.563      18.945
  H      -34.723    -158.007      18.913
  H      -36.280    -158.285      21.239
  H      -36.639    -160.659      20.832
  H      -33.596    -160.820      20.366
  H      -35.934    -162.499      19.356
  H      -40.770    -156.034      16.073
  H      -40.869    -157.683      16.682
  H      -34.238    -162.672      18.826
  P      -36.238    -161.661      23.195
  C      -37.450    -159.563      24.133
  O      -36.802    -160.796      24.425
  O      -35.238    -162.692      23.897
  O      -37.266    -162.349      22.356
  H      -35.653    -163.570      23.992
  H      -37.769    -159.103      25.045
  H      -38.300    -159.746      23.509
  H      -36.768    -158.913      23.626

 6  7  8  9  10  11  12  13  14  15  25  28  32  33  34  35 0
 6-311+G(2d,p)
 ****
 36  39  40 0
 6-311+G(2d,p)
 ****
 1  2  3  4  5  16  17  18  19  20  21  22  23  24 0
 3-21G
 ****
 26  27  29  30  31  37  38  41  42  43  44  45  46  47 0
 3-21G
 ****
 48 0
 3-21G
 ****


