%nproc=1
%NoSave
%Mem=1900MB
#P OB98/GEN NMR

erre ene a

0 1
  C      194.077    -387.723    -140.836
  O      194.195    -388.005    -139.454
  P      192.977    -387.554    -138.506
  C      192.322    -385.345    -137.302
  O      193.254    -386.017    -138.142
  C      193.042    -384.686    -136.127
  O      193.632    -385.692    -135.286
  C      194.181    -383.774    -136.543
  O      193.684    -382.528    -137.000
  C      194.974    -383.673    -135.242
  O      194.459    -382.633    -134.397
  C      194.745    -385.064    -134.604
  N      195.932    -385.901    -134.635
  C      197.051    -385.398    -133.961
  O      196.995    -384.301    -133.402
  N      198.209    -386.132    -133.965
  C      198.251    -387.266    -134.601
  N      199.428    -387.952    -134.569
  C      197.100    -387.818    -135.343
  C      195.988    -387.088    -135.323
  O      193.285    -388.327    -137.141
  O      191.621    -387.863    -139.042
  H      194.598    -381.797    -134.885
  H      192.461    -388.483    -136.636
  H      197.186    -388.769    -135.856
  H      195.097    -387.423    -135.847
  H      194.434    -384.954    -133.554
  H      196.031    -383.446    -135.416
  H      194.799    -384.243    -137.315
  H      192.301    -384.131    -135.538
  H      200.198    -387.545    -134.059
  H      191.601    -386.065    -136.915
  H      199.551    -388.854    -135.015
  H      191.783    -384.597    -137.899
  P      194.322    -381.918    -138.340
  C      196.634    -380.996    -138.953
  O      195.782    -381.419    -137.905
  O      193.527    -380.537    -138.490
  O      194.246    -382.757    -139.574
  H      193.760    -380.116    -139.342
  H      197.527    -380.538    -138.520
  H      196.130    -380.255    -139.582
  H      196.944    -381.853    -139.557
  H      194.949    -388.073    -141.347
  H      193.981    -386.667    -140.978
  H      193.212    -388.216    -141.228

 3  4  5  6  7  8  9  10  11  12  13  21  23  27  28  29  30  32 0
 6-311+G(2d,p)
 ****
 34  35 0
 6-311+G(2d,p)
 ****
 1  2  14  15  16  17  18  19  20  22  24  25  26 0
 3-21G
 ****
 31  33  36  37  38  39  40  41  42  43  44  45  46 0
 3-21G
 ****


