%nproc=1
%NoSave
%Mem=1900MB
#P OB98/GEN NMR

erre ene a

0 1
  C     -413.546     173.125     320.036
  O     -412.986     172.664     321.248
  H     -414.588     173.406     320.218
  H     -413.526     172.333     319.283
  H     -413.007     174.004     319.669
  P     -411.429     172.277     321.283
  C     -410.436     173.712     323.170
  O     -410.949     172.438     322.808
  C     -410.849     174.067     324.600
  O     -412.261     174.394     324.609
  C     -410.618     172.936     325.605
  O     -410.185     173.509     326.840
  C     -412.001     172.336     325.781
  O     -412.161     171.700     327.049
  C     -412.901     173.554     325.592
  N     -417.831     174.034     326.586
  C     -416.737     174.623     327.190
  N     -416.987     175.447     328.231
  N     -415.504     174.421     326.807
  C     -415.398     173.587     325.746
  C     -416.401     172.938     325.066
  C     -417.764     173.159     325.506
  O     -418.771     172.654     325.021
  N     -415.893     172.152     324.060
  C     -414.585     172.326     324.138
  N     -414.234     173.175     325.150
  O     -410.571     172.988     320.287
  O     -411.416     170.694     321.059
  H     -413.108     171.472     327.140
  H     -411.199     170.479     320.134
  H     -418.759     174.216     326.929
  H     -413.854     171.853     323.495
  H     -413.022     174.133     326.516
  H     -412.181     171.586     324.995
  H     -417.911     175.663     328.570
  H     -409.889     172.198     325.259
  H     -416.201     175.911     328.676
  H     -410.311     174.976     324.901
  H     -410.838     174.457     322.476
  H     -409.343     173.702     323.087
  P     -408.880     172.910     327.556
  C     -407.806     174.986     328.634
  O     -408.565     173.806     328.848
  O     -407.715     172.654     326.659
  O     -409.425     171.544     328.201
  H     -408.694     170.898     328.235
  H     -407.664     175.493     329.566
  H     -408.328     175.628     327.955
  H     -406.854     174.727     328.220

 6  7  8  9  10  11  12  13  14  15  26  29  33  34 0
 6-311+G(2d,p)
 ****
 36  38  39  40  41 0
 6-311+G(2d,p)
 ****
 1  2  3  4  5  16  17  18  19  20  21  22  23  24  25 0
 3-21G
 ****
 27  28  30  31  32  35  37  42  43  44  45  46  47 0
 3-21G
 ****
 48  49 0
 3-21G
 ****


