%nproc=1
%NoSave
%Mem=1900MB
#P OB98/GEN NMR

erre ene a

0 1
  C      315.809     266.900    -131.340
  O      315.094     265.900    -132.041
  H      316.866     266.604    -131.298
  H      315.436     267.003    -130.317
  H      315.737     267.854    -131.864
  P      313.489     265.965    -132.019
  C      313.180     267.257    -134.239
  O      313.103     267.310    -132.811
  C      311.793     267.120    -134.863
  O      310.906     268.124    -134.323
  C      311.773     267.334    -136.367
  O      312.405     266.311    -137.105
  C      310.310     267.658    -136.631
  O      309.496     266.510    -136.812
  C      309.900     268.382    -135.322
  N      309.700     269.815    -135.531
  C      308.699     270.165    -136.430
  O      308.025     269.338    -137.046
  N      308.516     271.505    -136.639
  C      309.267     272.504    -136.080
  O      309.083     273.690    -136.344
  C      310.327     272.070    -135.154
  C      310.496     270.766    -134.932
  O      312.854     265.861    -130.662
  O      313.044     264.807    -133.026
  H      309.840     266.028    -137.595
  H      312.094     264.573    -132.897
  H      307.793     271.773    -137.277
  H      310.945     272.846    -134.702
  H      311.276     270.428    -134.248
  H      308.963     267.968    -134.931
  H      310.188     268.276    -137.523
  H      312.331     268.255    -136.580
  H      311.394     266.132    -134.593
  H      313.787     266.378    -134.501
  H      313.689     268.157    -134.609
  P      312.569     266.346    -138.696
  C      315.138     266.669    -138.594
  O      313.900     267.177    -139.041
  O      311.332     266.591    -139.495
  O      313.038     264.830    -138.998
  H      312.667     264.567    -139.860
  H      315.925     267.328    -138.898
  H      315.300     265.700    -139.018
  H      315.128     266.594    -137.527

 6  7  8  9  10  11  12  13  14  15  16  26  31  32  33  34  35 0
 6-311+G(2d,p)
 ****
 36  37 0
 6-311+G(2d,p)
 ****
 1  2  3  4  5  17  18  19  20  21  22  23  24  25 0
 3-21G
 ****
 27  28  29  30  38  39  40  41  42  43  44  45 0
 3-21G
 ****


