%nproc=1
%NoSave
%Mem=1900MB
#P OB98/GEN NMR

erre ene a

0 1
  C       34.258     -43.900       9.560
  O       34.634     -44.060      10.913
  H       33.362     -43.279       9.487
  H       35.073     -43.405       9.023
  H       34.073     -44.876       9.101
  P       33.554     -44.739      11.887
  C       33.123     -42.414      12.977
  O       32.569     -43.546      12.319
  C       32.110     -41.274      12.958
  O       31.601     -41.085      11.618
  C       30.888     -41.523      13.835
  O       31.124     -41.215      15.198
  C       29.895     -40.554      13.216
  O       30.190     -39.214      13.644
  C       30.198     -40.715      11.718
  N       26.368     -41.569       8.427
  C       26.983     -40.433       8.821
  N       28.009     -40.292       9.685
  C       28.406     -41.487      10.151
  C       27.882     -42.730       9.835
  C       26.807     -42.748       8.929
  N       26.157     -43.902       8.549
  N       28.539     -43.726      10.532
  C       29.455     -43.093      11.238
  N       29.392     -41.736      11.067
  O       34.379     -45.027      13.229
  O       32.863     -45.950      11.354
  H       31.099     -39.014      13.351
  H       33.884     -45.638      13.808
  H       26.596     -39.514       8.388
  H       30.174     -43.569      11.893
  H       30.058     -39.784      11.157
  H       28.862     -40.765      13.507
  H       30.510     -42.546      13.718
  H       32.625     -40.350      13.251
  H       34.034     -42.107      12.452
  H       25.308     -43.798       8.015
  H       26.377     -44.763       9.028
  H       33.373     -42.679      14.009
  P       30.643     -42.289      16.293
  C       28.860     -40.564      17.067
  O       29.131     -41.903      16.672
  O       31.469     -41.864      17.596
  O       30.877     -43.714      15.912
  H       31.679     -42.644      18.145
  H       27.818     -40.461      17.286
  H       29.125     -39.897      16.273
  H       29.433     -40.326      17.939

 6  7  8  9  10  11  12  13  14  15  25  28  32  33  34  35 0
 6-311+G(2d,p)
 ****
 36  39  40 0
 6-311+G(2d,p)
 ****
 1  2  3  4  5  16  17  18  19  20  21  22  23  24 0
 3-21G
 ****
 26  27  29  30  31  37  38  41  42  43  44  45  46  47 0
 3-21G
 ****
 48 0
 3-21G
 ****


