%nproc=1
%NoSave
%Mem=1900MB
#P OB98/GEN NMR

erre ene a

0 1
  C     -133.394    -161.098     108.327
  O     -132.404    -160.198     107.889
  P     -131.124    -159.792     108.753
  C     -130.687    -158.690     111.087
  O     -131.616    -158.991     110.053
  C     -131.407    -158.432     112.420
  O     -131.707    -159.711     113.042
  C     -130.515    -157.654     113.408
  O     -131.198    -156.638     114.134
  C     -129.849    -158.767     114.213
  O     -129.330    -158.331     115.464
  C     -130.960    -159.810     114.276
  N     -130.661    -163.813     117.407
  C     -131.426    -162.669     117.529
  N     -132.053    -162.491     118.718
  N     -131.539    -161.768     116.583
  C     -130.771    -162.022     115.494
  C     -129.976    -163.125     115.262
  C     -129.886    -164.127     116.300
  O     -129.127    -165.099     116.282
  N     -129.283    -163.012     114.078
  C     -129.639    -161.831     113.608
  N     -130.516    -161.180     114.451
  O     -129.944    -159.262     108.003
  O     -130.695    -161.223     109.386
  H     -128.761    -157.555     115.291
  H     -129.717    -161.223     109.455
  H     -130.550    -164.430     118.206
  H     -129.274    -161.388     112.689
  H     -131.652    -159.610     115.099
  H     -128.997    -159.135     113.625
  H     -131.862    -163.092     119.510
  H     -129.739    -157.097     112.868
  H     -132.405    -161.560     118.918
  H     -132.357    -157.924     112.222
  H     -130.150    -157.787     110.769
  H     -129.955    -159.496     111.195
  P     -130.622    -155.269     114.725
  C     -129.572    -154.411     116.909
  O     -130.084    -155.537     116.211
  O     -131.909    -154.348     114.973
  O     -129.649    -154.566     113.835
  H     -131.706    -153.424     114.728
  H     -128.996    -154.765     117.775
  H     -130.401    -153.791     117.263
  H     -128.918    -153.817     116.264
  H     -134.142    -161.202     107.569
  H     -133.843    -160.725     109.224
  H     -132.949    -162.051     108.521

 3  4  5  6  7  8  9  10  11  12  23  26  30  31 0
 6-311+G(2d,p)
 ****
 33  35  36  37  38 0
 6-311+G(2d,p)
 ****
 1  2  13  14  15  16  17  18  19  20  21  22  24  25 0
 3-21G
 ****
 27  28  29  32  34  39  40  41  42  43  44  45  46  47  48  49 0
 3-21G
 ****


