%nproc=1
%NoSave
%Mem=1900MB
#P OB98/GEN NMR

erre ene a

0 1
  C     -109.353      12.603     -39.991
  O     -108.151      11.856     -40.038
  P     -106.762      12.546     -39.645
  C     -105.970      12.713     -42.119
  O     -106.281      13.390     -40.920
  C     -105.531      13.696     -43.212
  O     -106.590      14.669     -43.387
  C     -104.276      14.500     -42.885
  O     -103.752      15.038     -44.101
  C     -104.837      15.619     -42.035
  O     -103.963      16.742     -41.975
  C     -106.214      15.884     -42.695
  N     -107.236      16.239     -41.694
  C     -107.387      17.593     -41.402
  O     -106.770      18.478     -41.992
  N     -108.210      17.889     -40.350
  C     -108.838      16.974     -39.557
  O     -109.310      17.231     -38.456
  C     -108.832      15.590     -40.059
  C     -108.021      15.284     -41.075
  O     -105.750      11.307     -39.603
  O     -106.775      13.297     -38.358
  H     -103.117      16.423     -41.583
  H     -105.644      10.990     -38.687
  H     -108.207      18.857     -40.047
  H     -109.441      14.858     -39.545
  H     -107.956      14.260     -41.433
  H     -106.158      16.701     -43.425
  H     -104.977      15.254     -41.009
  H     -103.505      13.933     -42.357
  H     -105.408      13.155     -44.159
  H     -106.842      12.138     -42.445
  H     -105.167      11.988     -41.949
  P     -102.167      14.950     -44.338
  C     -102.072      17.497     -44.661
  O     -101.572      16.387     -43.941
  O     -101.732      14.418     -45.661
  O     -101.673      14.019     -43.129
  H     -100.792      13.656     -43.333
  H     -102.027      18.381     -44.019
  H     -103.107      17.339     -44.975
  H     -101.446      17.666     -45.541
  H     -110.172      11.980     -40.285
  H     -109.281      13.436     -40.658
  H     -109.514      12.957     -38.994

 3  4  5  6  7  8  9  10  11  12  13  23  28  29  30  31  32 0
 6-311+G(2d,p)
 ****
 33  34 0
 6-311+G(2d,p)
 ****
 1  2  14  15  16  17  18  19  20  21  22  24  25  26  27 0
 3-21G
 ****
 35  36  37  38  39  40  41  42  43  44  45 0
 3-21G
 ****


