%nproc=1
%NoSave
%Mem=1900MB
#P OB98/GEN NMR

erre ene a

0 1
  C      236.886     917.915    -270.629
  O      235.499     918.085    -270.402
  H      237.371     918.890    -270.714
  H      237.319     917.377    -269.773
  H      237.057     917.326    -271.534
  P      234.674     918.876    -271.530
  C      232.469     918.134    -272.678
  O      233.156     918.361    -271.450
  C      231.320     917.152    -272.459
  O      231.848     915.961    -271.806
  C      230.165     917.696    -271.593
  O      228.924     917.647    -272.327
  C      230.074     916.716    -270.417
  O      228.734     916.415    -270.042
  C      230.820     915.478    -270.924
  N      229.705     912.281    -267.128
  C      229.040     912.584    -268.265
  N      229.442     913.362    -269.292
  C      230.672     913.835    -269.061
  C      231.479     913.602    -267.960
  C      230.943     912.805    -266.940
  N      231.595     912.548    -265.746
  N      232.677     914.283    -268.079
  C      232.584     914.937    -269.209
  N      231.387     914.723    -269.832
  O      235.222     918.246    -272.896
  O      234.844     920.365    -271.500
  H      228.785     915.680    -269.403
  H      235.442     918.966    -273.520
  H      228.058     912.137    -268.373
  H      233.331     915.627    -269.614
  H      230.157     914.816    -271.509
  H      230.593     917.177    -269.553
  H      230.348     918.719    -271.242
  H      230.938     916.837    -273.433
  H      233.166     917.705    -273.417
  H      231.077     912.056    -265.025
  H      232.457     913.024    -265.567
  H      232.098     919.086    -273.064
  P      228.332     919.049    -272.834
  C      227.895     920.121    -275.158
  O      228.092     918.922    -274.411
  O      229.583     920.041    -272.714
  O      227.157     919.533    -272.037
  H      229.274     920.956    -272.590
  H      227.749     919.878    -276.190
  H      228.756     920.749    -275.058
  H      227.033     920.635    -274.787

 6  7  8  9  10  11  12  13  14  15  25  28  32  33  34  35 0
 6-311+G(2d,p)
 ****
 36  39  40 0
 6-311+G(2d,p)
 ****
 1  2  3  4  5  16  17  18  19  20  21  22  23  24 0
 3-21G
 ****
 26  27  29  30  31  37  38  41  42  43  44  45  46  47  48 0
 3-21G
 ****


