%nproc=1
%NoSave
%Mem=1900MB
#P OB98/GEN NMR

erre ene a

0 1
  C      785.555     176.040     165.123
  O      785.005     176.237     163.827
  P      785.896     175.865     162.548
  C      783.945     174.451     161.448
  O      785.302     174.566     161.829
  C      783.771     173.194     160.582
  O      784.192     173.450     159.223
  C      784.586     171.998     161.084
  O      783.888     171.258     162.060
  C      784.830     171.225     159.795
  O      783.649     170.485     159.426
  C      785.081     172.378     158.795
  N      786.460     172.910     158.681
  C      787.477     172.096     158.208
  O      787.331     170.922     157.868
  N      788.720     172.672     158.113
  C      789.009     173.991     158.278
  O      790.126     174.470     158.124
  C      787.868     174.849     158.628
  C      786.673     174.279     158.822
  O      787.273     175.350     163.181
  O      786.107     176.997     161.593
  H      782.927     171.129     159.327
  H      788.006     175.948     162.939
  H      789.489     172.077     157.840
  H      788.041     175.909     158.723
  H      785.820     174.901     159.087
  H      784.769     172.085     157.784
  H      785.622     170.490     159.924
  H      785.556     172.337     161.460
  H      782.707     172.932     160.555
  H      783.616     175.332     160.893
  H      783.318     174.381     162.339
  P      784.466     171.149     163.552
  C      782.483     171.933     164.975
  O      783.719     172.300     164.393
  O      785.959     171.135     163.676
  O      783.797     169.816     164.125
  H      784.417     169.050     164.029
  H      782.151     172.737     165.644
  H      782.587     171.011     165.555
  H      781.727     171.799     164.194
  H      784.840     176.334     165.862
  H      786.441     176.631     165.228
  H      785.799     175.006     165.254

 3  4  5  6  7  8  9  10  11  12  13  23  28  29  30  31  32 0
 6-311+G(2d,p)
 ****
 33  34 0
 6-311+G(2d,p)
 ****
 1  2  14  15  16  17  18  19  20  21  22  24  25  26  27 0
 3-21G
 ****
 35  36  37  38  39  40  41  42  43  44  45 0
 3-21G
 ****


