%nproc=1
%NoSave
%Mem=1900MB
#P OB98/GEN NMR

erre ene a

0 1
  C     -315.480     722.481    -375.760
  O     -316.540     723.033    -374.985
  P     -316.771     724.616    -375.027
  C     -316.127     726.648    -373.515
  O     -315.976     725.254    -373.791
  C     -315.728     726.953    -372.076
  O     -316.700     726.362    -371.167
  C     -314.349     726.430    -371.678
  O     -313.780     727.354    -370.732
  C     -314.677     725.134    -370.957
  O     -313.636     724.665    -370.114
  C     -315.954     725.550    -370.223
  N     -316.740     724.405    -369.742
  C     -316.098     723.473    -368.945
  O     -314.902     723.544    -368.614
  N     -316.841     722.391    -368.562
  C     -318.105     722.115    -368.968
  O     -318.683     721.061    -368.700
  C     -318.746     723.129    -369.814
  C     -318.054     724.225    -370.161
  O     -318.314     724.785    -374.609
  O     -316.483     725.263    -376.346
  H     -313.952     723.859    -369.676
  H     -318.859     724.922    -375.395
  H     -316.386     721.698    -367.975
  H     -319.782     722.958    -370.131
  H     -318.492     724.978    -370.795
  H     -315.704     726.200    -369.383
  H     -314.880     724.345    -371.696
  H     -313.663     726.282    -372.516
  H     -315.786     728.039    -371.934
  H     -317.164     726.926    -373.676
  H     -315.505     727.226    -374.222
  P     -312.247     727.808    -370.937
  C     -309.962     726.963    -369.969
  O     -311.342     726.704    -370.209
  O     -312.169     729.071    -369.970
  O     -311.903     728.133    -372.367
  H     -312.622     728.919    -369.107
  H     -309.786     728.008    -369.750
  H     -309.391     726.658    -370.828
  H     -309.654     726.369    -369.107
  H     -315.456     721.420    -375.626
  H     -314.549     722.902    -375.442
  H     -315.639     722.707    -376.794

 3  4  5  6  7  8  9  10  11  12  13  23  28  29  30  31  32 0
 6-311+G(2d,p)
 ****
 33  34 0
 6-311+G(2d,p)
 ****
 1  2  14  15  16  17  18  19  20  21  22  24  25  26 0
 3-21G
 ****
 27  35  36  37  38  39  40  41  42  43  44  45 0
 3-21G
 ****


