%nproc=1
%NoSave
%Mem=1900MB
#P OB98/GEN NMR

erre ene a

0 1
  C     -558.974     400.247    -163.890
  O     -559.492     400.969    -162.796
  H     -558.665     399.255    -163.544
  H     -558.098     400.763    -164.299
  H     -559.732     400.129    -164.668
  P     -560.042     402.449    -163.104
  C     -559.038     404.779    -162.511
  O     -558.789     403.439    -162.930
  C     -557.878     405.279    -161.662
  O     -557.893     404.603    -160.381
  C     -556.504     405.004    -162.254
  O     -556.169     405.939    -163.268
  C     -555.619     405.106    -161.019
  O     -555.281     406.463    -160.722
  C     -556.521     404.540    -159.916
  N     -554.163     401.595    -156.484
  C     -554.397     402.928    -156.525
  N     -555.052     403.632    -157.473
  C     -555.497     402.819    -158.446
  C     -555.330     401.447    -158.547
  C     -554.624     400.825    -157.496
  N     -554.352     399.477    -157.475
  N     -555.885     400.969    -159.714
  C     -556.390     402.034    -160.306
  N     -556.181     403.173    -159.579
  O     -560.956     402.767    -161.827
  O     -560.798     402.592    -164.383
  H     -554.790     406.451    -159.877
  H     -561.886     402.543    -162.025
  H     -554.006     403.499    -155.690
  H     -556.903     402.038    -161.261
  H     -556.469     405.124    -158.992
  H     -554.683     404.554    -161.153
  H     -556.456     403.977    -162.648
  H     -558.016     406.353    -161.479
  H     -559.961     404.799    -161.915
  H     -559.174     405.408    -163.402
  H     -553.822     399.102    -156.704
  H     -554.603     398.916    -158.278
  P     -555.242     405.452    -164.480
  C     -552.757     404.715    -164.757
  O     -553.820     405.025    -163.867
  O     -554.921     406.805    -165.270
  O     -555.864     404.415    -165.373
  H     -555.494     406.883    -166.053
  H     -551.886     404.452    -164.194
  H     -552.543     405.567    -165.368
  H     -553.041     403.892    -165.379

 6  7  8  9  10  11  12  13  14  15  25  28  32  33  34  35 0
 6-311+G(2d,p)
 ****
 36  37  40 0
 6-311+G(2d,p)
 ****
 1  2  3  4  5  16  17  18  19  20  21  22  23  24 0
 3-21G
 ****
 26  27  29  30  31  38  39 41  42  43  44  45  46  47  48 0
 3-21G
 ****


