%nproc=1
%NoSave
%Mem=1900MB
#P OB98/GEN NMR

erre ene a

0 1
  C     -375.493    -600.981     478.733
  O     -374.074    -600.966     478.930
  P     -373.390    -601.612     480.223
  C     -371.224    -602.289     479.006
  O     -372.348    -602.739     479.768
  C     -371.067    -603.076     477.690
  O     -372.188    -602.828     476.820
  C     -369.816    -602.728     476.898
  O     -368.678    -603.361     477.441
  C     -370.220    -603.212     475.499
  O     -370.014    -604.628     475.383
  C     -371.711    -602.866     475.459
  N     -373.452    -600.724     471.158
  C     -373.332    -602.010     471.538
  N     -372.842    -602.506     472.699
  C     -372.501    -601.512     473.524
  C     -372.569    -600.137     473.287
  C     -373.069    -599.753     472.020
  N     -373.189    -598.430     471.635
  N     -372.088    -599.427     474.351
  C     -371.759    -600.331     475.249
  N     -371.998    -601.604     474.795
  O     -374.347    -602.064     481.271
  O     -372.446    -600.447     480.815
  H     -369.114    -604.835     475.697
  H     -372.342    -600.555     481.774
  H     -373.656    -602.739     470.813
  H     -371.366    -600.127     476.233
  H     -372.286    -603.642     474.943
  H     -369.626    -602.742     474.709
  H     -369.672    -601.655     476.868
  H     -371.073    -604.146     477.954
  H     -370.321    -602.416     479.615
  H     -373.519    -598.239     470.707
  H     -372.854    -597.707     472.263
  H     -371.360    -601.214     478.789
  P     -368.056    -602.843     478.829
  C     -368.271    -604.852     480.417
  O     -368.831    -603.627     480.012
  O     -367.985    -601.360     478.986
  O     -366.616    -603.522     478.870
  H     -365.996    -602.951     479.384
  H     -368.572    -605.641     479.706
  H     -368.660    -605.111     481.402
  H     -367.180    -604.797     480.467
  H     -375.730    -600.497     477.808
  H     -375.970    -600.464     479.539
  H     -375.838    -601.993     478.705

 3  4  5  6  7  8  9  10  11  12  22  25  29  30  31  32 0
 6-311+G(2d,p)
 ****
 33  36  37 0
 6-311+G(2d,p)
 ****
 1  2  13  14  15  16  17  18  19  20  21  23  24  26 0
 3-21G
 ****
 27  28  34  35  38  39  40  41  42  43  44  45  46  47  48 0
 3-21G
 ****


