%nproc=1
%NoSave
%Mem=1900MB
#P OB98/GEN NMR

erre ene a

0 1
  C     -594.913      20.201     168.041
  O     -596.222      20.717     167.890
  P     -597.240      20.905     169.100
  C     -599.254      20.742     167.459
  O     -598.664      20.286     168.676
  C     -600.504      19.940     167.058
  O     -600.118      18.593     166.702
  C     -601.459      19.815     168.257
  O     -602.366      20.858     168.558
  C     -602.094      18.436     168.118
  O     -603.385      18.486     167.510
  C     -601.109      17.679     167.212
  N     -601.570      13.055     169.245
  C     -602.440      13.729     168.409
  N     -603.659      13.172     168.252
  N     -602.144      14.848     167.806
  C     -600.913      15.331     168.131
  C     -599.962      14.752     168.939
  C     -600.294      13.489     169.567
  O     -599.582      12.908     170.384
  N     -598.866      15.560     169.100
  C     -599.171      16.657     168.433
  N     -600.420      16.576     167.861
  O     -597.226      22.237     169.791
  O     -596.695      19.813     170.153
  H     -604.043      18.604     168.218
  H     -596.831      20.166     171.056
  H     -601.887      12.231     169.749
  H     -598.548      17.537     168.363
  H     -601.629      17.268     166.340
  H     -602.222      17.965     169.094
  H     -603.979      12.389     168.816
  H     -600.829      19.741     169.155
  H     -604.382      13.722     167.785
  H     -600.973      20.367     166.166
  H     -598.486      20.680     166.680
  H     -599.527      21.795     167.561
  P     -602.272      21.857     169.802
  C     -604.722      22.608     169.835
  O     -603.703      21.896     170.521
  O     -602.164      23.319     169.139
  O     -601.113      21.622     170.727
  H     -601.761      23.942     169.776
  H     -605.539      22.829     170.525
  H     -605.113      21.980     169.020
  H     -604.332      23.545     169.428
  H     -594.429      20.172     167.087
  H     -594.964      19.212     168.445
  H     -594.356      20.829     168.705

 3  4  5  6  7  8  9  10  11  12  23  26  30  31 0
 6-311+G(2d,p)
 ****
 33  35  36  37  38 0
 6-311+G(2d,p)
 ****
 1  2  13  14  15  16  17  18  19  20  21  22  24  25 0
 3-21G
 ****
 27  28  29  32  34  39  40  41  42  43  44  45  46  47  48  49 0
 3-21G
 ****


