%nproc=1
%NoSave
%Mem=1900MB
#P OB98/GEN NMR

erre ene a

0 1
  C     -333.403     727.951     782.243
  O     -332.566     729.051     781.963
  H     -334.403     728.327     782.469
  H     -333.026     727.402     783.116
  H     -333.464     727.275     781.386
  P     -331.073     728.775     781.437
  C     -329.058     730.317     780.962
  O     -330.479     730.189     780.975
  C     -328.650     731.556     780.175
  O     -329.009     731.401     778.776
  C     -329.350     732.831     780.626
  O     -328.783     733.321     781.850
  C     -329.116     733.724     779.413
  O     -327.811     734.316     779.436
  C     -329.253     732.716     778.254
  N     -330.561     732.809     777.602
  C     -330.695     732.167     776.387
  O     -329.784     731.534     775.844
  N     -331.900     732.316     775.756
  C     -332.904     733.152     776.147
  O     -333.854     733.452     775.449
  C     -332.746     733.756     777.482
  C     -331.586     733.573     778.134
  O     -330.929     727.664     780.446
  O     -330.249     728.470     782.779
  H     -330.119     727.500     782.863
  H     -327.858     735.019     780.113
  H     -331.992     731.898     774.847
  H     -333.561     734.383     777.876
  H     -331.429     734.040     779.113
  H     -328.463     732.897     777.499
  H     -329.858     734.532     779.390
  H     -330.415     732.656     780.754
  H     -327.540     731.653     780.230
  H     -328.630     729.416     780.488
  H     -328.695     730.368     781.998
  P     -329.416     734.603     782.561
  C     -329.834     735.335     785.004
  O     -329.689     734.234     784.111
  O     -330.595     735.210     781.847
  O     -328.217     735.646     782.664
  H     -328.498     736.505     782.313
  H     -330.010     734.970     785.994
  H     -330.661     735.939     784.694
  H     -328.940     735.923     784.994

 6  7  8  9  10  11  12  13  14  15  16  27  31  32  33  34  35 0
 6-311+G(2d,p)
 ****
 36  37 0
 6-311+G(2d,p)
 ****
 1  2  3  4  5  17  18  19  20  21  22  23  24  25 0
 3-21G
 ****
 26  28  29  30  38  39  40  41  42  43  44  45 0
 3-21G
 ****


