%nproc=1
%NoSave
%Mem=1900MB
#P OB98/GEN NMR

erre ene a

0 1
  C      562.753     826.346    -581.894
  O      562.685     826.032    -580.488
  P      561.248     825.687    -579.905
  C      561.843     823.493    -578.615
  O      561.149     824.078    -579.713
  C      561.522     821.999    -578.545
  O      560.111     821.752    -578.336
  C      561.857     821.236    -579.827
  O      563.259     821.044    -579.957
  C      561.053     819.964    -579.627
  O      561.746     819.064    -578.741
  C      559.785     820.497    -578.935
  N      555.430     818.423    -580.711
  C      556.329     818.003    -579.786
  N      557.467     818.603    -579.370
  C      557.634     819.785    -580.010
  C      556.799     820.353    -580.953
  C      555.653     819.610    -581.320
  N      554.748     820.046    -582.269
  N      557.303     821.566    -581.373
  C      558.425     821.724    -580.710
  N      558.664     820.678    -579.859
  O      560.249     825.970    -581.124
  O      560.870     826.477    -578.699
  H      561.823     819.517    -577.878
  H      559.735     826.783    -580.954
  H      556.106     817.046    -579.328
  H      559.106     822.559    -580.818
  H      559.428     819.812    -578.132
  H      560.854     819.422    -580.578
  H      561.483     821.800    -580.704
  H      562.081     821.565    -577.704
  H      561.555     823.978    -577.680
  H      553.992     819.436    -582.513
  H      554.947     820.904    -582.779
  H      562.913     823.664    -578.739
  P      563.992     821.754    -581.198
  C      565.851     822.459    -579.584
  O      564.905     822.893    -580.523
  O      562.795     822.584    -581.859
  O      564.710     820.811    -582.118
  H      562.282     823.075    -581.181
  H      566.422     823.330    -579.219
  H      566.551     821.746    -580.042
  H      565.350     821.996    -578.715
  H      563.766     826.559    -582.163
  H      562.143     827.201    -582.098
  H      562.400     825.511    -582.463

 3  4  5  6  7  8  9  10  11  12  22  25  29  30  31  32 0
 6-311+G(2d,p)
 ****
 33  36  37 0
 6-311+G(2d,p)
 ****
 1  2  13  14  15  16  17  18  19  20  21  23  24  26 0
 3-21G
 ****
 27  28  34  35  38  39  40  41  42  43  44  45  46  47  48 0
 3-21G
 ****


