%nproc=1
%NoSave
%Mem=1900MB
#P OB98/GEN NMR

erre ene a

0 1
  C       63.377     -24.908     -29.415
  O       62.588     -24.531     -30.527
  H       64.421     -24.663     -29.629
  H       63.301     -25.984     -29.236
  H       63.065     -24.358     -28.523
  P       61.021     -24.858     -30.497
  C       61.346     -27.028     -31.870
  O       60.889     -26.448     -30.652
  C       60.482     -28.228     -32.251
  O       60.531     -29.230     -31.216
  C       59.006     -27.897     -32.439
  O       58.796     -27.230     -33.667
  C       58.394     -29.285     -32.335
  O       58.560     -30.014     -33.562
  C       59.254     -29.910     -31.207
  N       58.632     -29.829     -29.890
  C       58.600     -31.017     -29.150
  O       59.065     -32.055     -29.624
  N       58.024     -30.996     -27.904
  C       57.563     -29.887     -27.419
  N       57.010     -29.933     -26.178
  C       57.609     -28.606     -28.151
  C       58.140     -28.653     -29.371
  O       60.163     -24.072     -31.439
  O       60.604     -24.608     -28.972
  H       58.029     -29.539     -34.232
  H       60.266     -23.701     -28.854
  H       57.221     -27.703     -27.705
  H       58.212     -27.753     -29.977
  H       59.457     -30.967     -31.423
  H       57.325     -29.252     -32.125
  H       58.641     -27.297     -31.598
  H       60.905     -28.673     -33.162
  H       57.020     -30.832     -25.706
  H       62.382     -27.347     -31.706
  H       56.771     -29.112     -25.641
  H       61.339     -26.287     -32.677
  P       57.754     -26.018     -33.797
  C       55.664     -27.463     -34.193
  O       56.345     -26.600     -33.294
  O       57.719     -25.351     -35.131
  O       58.168     -25.036     -32.603
  H       58.976     -24.520     -32.846
  H       54.744     -27.785     -33.751
  H       56.276     -28.315     -34.402
  H       55.458     -26.939     -35.103

 6  7  8  9  10  11  12  13  14  15  16  26  30  31  32  33  35 0
 6-311+G(2d,p)
 ****
 37  38 0
 6-311+G(2d,p)
 ****
 1  2  3  4  5  17  18  19  20  21  22  23  24  25 0
 3-21G
 ****
 27  28  29  34  36  39  40  41  42  43  44  45  46 0
 3-21G
 ****


