%nproc=1
%NoSave
%Mem=1900MB
#P OB98/GEN NMR

erre ene a

0 1
  C      179.669    -496.098    -332.785
  O      180.885    -496.803    -332.941
  H      179.861    -495.034    -332.945
  H      179.279    -496.241    -331.777
  H      178.934    -496.438    -333.522
  P      180.813    -498.398    -332.761
  C      181.646    -500.284    -334.354
  O      181.887    -499.010    -333.783
  C      182.839    -500.723    -335.214
  O      182.866    -499.911    -336.426
  C      184.201    -500.537    -334.528
  O      185.101    -501.527    -335.053
  C      184.610    -499.158    -335.023
  O      185.979    -498.921    -334.776
  C      184.162    -499.267    -336.480
  N      186.751    -495.175    -338.110
  C      187.157    -496.321    -337.529
  N      186.413    -497.376    -337.136
  C      185.110    -497.164    -337.411
  C      184.548    -496.054    -338.010
  C      185.430    -495.014    -338.365
  N      185.011    -493.841    -338.952
  N      183.173    -496.200    -338.133
  C      182.918    -497.382    -337.615
  N      184.054    -498.000    -337.162
  O      179.399    -498.776    -333.417
  O      180.926    -498.893    -331.359
  H      186.250    -498.040    -335.115
  H      178.718    -498.832    -332.723
  H      188.230    -496.407    -337.354
  H      181.935    -497.840    -337.536
  H      184.828    -499.911    -337.060
  H      184.054    -498.372    -334.498
  H      184.158    -500.629    -333.439
  H      182.694    -501.766    -335.532
  H      180.740    -500.222    -334.979
  H      181.479    -501.021    -333.558
  H      185.710    -493.142    -339.162
  H      184.029    -493.701    -339.134
  P      185.395    -502.858    -334.193
  C      186.965    -504.794    -335.003
  O      186.834    -503.428    -334.614
  O      184.401    -503.918    -334.873
  O      185.135    -502.751    -332.727
  H      184.157    -504.594    -334.221
  H      187.986    -504.999    -335.248
  H      186.348    -504.982    -335.857
  H      186.659    -505.426    -334.196

 6  7  8  9  10  11  12  13  14  15  25  28  32  33  34  35 0
 6-311+G(2d,p)
 ****
 36  37  40 0
 6-311+G(2d,p)
 ****
 1  2  3  4  5  16  17  18  19  20  21  22  23  24 0
 3-21G
 ****
 26  27  29  30  31  38  39 41  42  43  44  45  46  47  48 0
 3-21G
 ****


