%nproc=1
%NoSave
%Mem=1900MB
#P OB98/GEN NMR

erre ene a

0 1
  C      -56.550    -890.160     279.417
  O      -56.923    -891.430     278.905
  P      -57.548    -891.470     277.410
  C      -55.349    -891.590     276.044
  O      -56.525    -892.260     276.473
  C      -54.102    -892.460     276.336
  O      -53.964    -892.720     277.757
  C      -54.150    -893.830     275.689
  O      -53.790    -893.790     274.319
  C      -53.085    -894.570     276.493
  O      -51.776    -894.280     275.954
  C      -53.244    -893.980     277.898
  N      -53.748    -898.660     279.781
  C      -52.847    -898.170     278.850
  N      -51.917    -899.040     278.387
  N      -52.849    -896.920     278.427
  C      -53.791    -896.160     279.007
  C      -54.757    -896.530     279.925
  C      -54.785    -897.910     280.356
  O      -55.574    -898.410     281.162
  N      -55.552    -895.480     280.294
  C      -55.069    -894.450     279.609
  N      -54.003    -894.820     278.808
  O      -57.403    -889.940     276.930
  O      -58.975    -891.940     277.374
  H      -51.813    -894.460     274.996
  H      -58.096    -889.730     276.268
  H      -53.706    -899.620     280.067
  H      -55.423    -893.440     279.671
  H      -52.288    -893.740     278.364
  H      -53.198    -895.670     276.441
  H      -51.825    -900.000     278.738
  H      -55.124    -894.310     275.828
  H      -51.220    -898.680     277.746
  H      -53.218    -891.900     276.000
  H      -55.236    -890.640     276.597
  H      -55.419    -891.360     274.993
  P      -54.506    -894.840     273.322
  C      -54.498    -893.400     271.156
  O      -53.939    -894.490     271.849
  O      -56.031    -894.320     273.288
  O      -54.393    -896.250     273.761
  H      -56.621    -895.080     273.122
  H      -54.634    -892.540     271.827
  H      -55.474    -893.680     270.743
  H      -53.820    -893.120     270.346
  H      -56.155    -890.276     280.405
  H      -57.408    -889.522     279.449
  H      -55.805    -889.725     278.784

 3  4  5  6  7  8  9  10  11  12  23  26  30  31  33  0
 6-311+G(2d,p)
 ****
 35  36  37  38 0
 6-311+G(2d,p)
 ****
 1  2  13  14  15  16  17  18  19  20  21  22  24  25  27  28  29 0
 3-21G
 ****
 32  34  39  40  41  42  43  44  45  46  47  48  49 0
 3-21G
 ****


