%nproc=1
%NoSave
%Mem=1900MB
#P OB98/GEN NMR

erre ene a

0 1
  C       83.807      73.746     -46.952
  O       83.673      72.549     -47.692
  H       84.249      73.509     -45.981
  H       82.830      74.208     -46.788
  H       84.466      74.446     -47.476
  P       82.974      72.613     -49.132
  C       80.565      73.039     -49.979
  O       81.471      73.111     -48.880
  C       79.216      73.653     -49.603
  O       79.390      75.019     -49.177
  C       78.214      73.700     -50.752
  O       77.672      72.415     -50.996
  C       77.232      74.733     -50.221
  O       76.350      74.153     -49.249
  C       78.192      75.746     -49.551
  N       78.523      76.885     -50.402
  C       77.653      77.982     -50.326
  O       76.672      77.943     -49.586
  N       77.919      79.080     -51.106
  C       78.974      79.104     -51.857
  N       79.183      80.227     -52.605
  C       79.934      77.985     -51.941
  C       79.645      76.915     -51.203
  O       83.084      71.383     -49.978
  O       83.660      73.878     -49.839
  H       76.910      73.596     -48.673
  H       84.418      73.596     -50.383
  H       80.807      78.053     -52.574
  H       80.297      76.048     -51.202
  H       77.754      76.130     -48.619
  H       76.607      75.153     -51.009
  H       78.687      74.104     -51.655
  H       78.815      73.090     -48.752
  H       78.507      80.975     -52.499
  H       80.441      71.980     -50.224
  H       80.043      80.420     -53.094
  H       80.980      73.550     -50.855
  P       77.124      71.999     -52.441
  C       75.061      72.614     -53.852
  O       75.678      72.688     -52.576
  O       77.150      70.535     -52.732
  O       78.013      72.865     -53.450
  H       78.914      72.463     -53.548
  H       74.110      73.104     -53.818
  H       74.924      71.588     -54.123
  H       75.684      73.094     -54.578

 6  7  8  9  10  11  12  13  14  15  16  26  30  31  32  33  35 0
 6-311+G(2d,p)
 ****
 37  38 0
 6-311+G(2d,p)
 ****
 1  2  3  4  5  17  18  19  20  21  22  23  24  25 0
 3-21G
 ****
 27  28  29  34  36  39  40  41  42  43  44  45  46 0
 3-21G
 ****


