%nproc=1
%NoSave
%Mem=1900MB
#P OB98/GEN NMR

erre ene a

0 1
  C     -116.928     882.986    -120.619
  O     -118.096     883.682    -121.024
  P     -118.545     883.727    -122.562
  C     -120.731     882.370    -122.495
  O     -119.336     882.348    -122.787
  C     -121.534     882.573    -123.781
  O     -121.066     881.629    -124.767
  C     -123.038     882.317    -123.672
  O     -123.790     883.428    -123.196
  C     -123.388     882.064    -125.136
  O     -123.477     883.316    -125.839
  C     -122.174     881.269    -125.620
  N     -124.732     877.326    -127.655
  C     -124.705     878.644    -127.966
  N     -124.016     879.634    -127.364
  C     -123.254     879.143    -126.371
  C     -123.168     877.823    -125.947
  C     -123.955     876.891    -126.645
  N     -123.964     875.548    -126.339
  N     -122.292     877.708    -124.890
  C     -121.850     878.933    -124.683
  N     -122.391     879.832    -125.563
  O     -117.446     884.002    -123.521
  O     -119.702     884.825    -122.603
  H     -124.293     883.760    -125.535
  H     -119.861     885.109    -123.522
  H     -125.333     878.952    -128.802
  H     -121.144     879.210    -123.916
  H     -121.893     881.518    -126.647
  H     -124.350     881.561    -125.257
  H     -123.251     881.411    -123.088
  H     -121.337     883.576    -124.161
  H     -120.925     883.210    -121.818
  H     -124.452     874.936    -126.972
  H     -123.267     875.199    -125.700
  H     -121.014     881.446    -121.995
  P     -124.499     883.271    -121.757
  C     -123.127     885.336    -120.905
  O     -123.507     883.989    -120.718
  O     -124.897     881.873    -121.405
  O     -125.730     884.288    -121.860
  H     -125.492     885.223    -121.909
  H     -122.600     885.680    -120.013
  H     -124.007     885.972    -121.059
  H     -122.464     885.424    -121.767
  H     -116.807     883.078    -119.560
  H     -116.075     883.403    -121.113
  H     -117.021     881.952    -120.879

 3  4  5  6  7  8  9  10  11  12  22  25  29  30  31  32 0
 6-311+G(2d,p)
 ****
 33  36  37 0
 6-311+G(2d,p)
 ****
 1  2  13  14  15  16  17  18  19  20  21  23  24  26 0
 3-21G
 ****
 27  28  34  35  38  39  40  41  42  43  44  45  46  47  48 0
 3-21G
 ****


