%nproc=1
%NoSave
%Mem=1900MB
#P OB98/GEN NMR

erre ene a

0 1
  C       63.805    -222.430     -94.886
  O       62.573    -222.762     -95.492
  H       64.286    -223.350     -94.544
  H       63.651    -221.776     -94.025
  H       64.462    -221.943     -95.611
  P       61.589    -221.580     -95.940
  C       61.624    -221.968     -98.486
  O       62.050    -221.138     -97.413
  C       61.813    -221.258     -99.827
  O       60.736    -220.299     -99.998
  C       63.144    -220.506     -99.941
  O       63.620    -220.635    -101.282
  C       62.741    -219.075     -99.654
  O       63.661    -218.154    -100.209
  C       61.327    -219.009    -100.238
  N       60.552    -217.929     -99.629
  C       60.523    -216.714    -100.320
  O       61.117    -216.596    -101.394
  N       59.882    -215.643     -99.755
  C       59.361    -215.755     -98.574
  N       58.776    -214.642     -98.055
  C       59.392    -217.008     -97.795
  C       59.995    -218.045     -98.376
  O       61.430    -220.455     -94.973
  O       60.198    -222.327     -96.204
  H       63.407    -217.243     -99.948
  H       59.663    -222.336     -95.388
  H       58.949    -217.049     -96.811
  H       60.075    -219.002     -97.874
  H       61.360    -218.848    -101.323
  H       62.711    -218.910     -98.570
  H       63.901    -220.867     -99.238
  H       61.710    -221.998    -100.630
  H       58.801    -213.800     -98.615
  H       60.563    -222.192     -98.336
  H       58.375    -214.596     -97.130
  H       62.187    -222.906     -98.475
  P       65.194    -220.614    -101.596
  C       65.735    -223.003    -100.853
  O       65.942    -221.619    -100.589
  O       65.798    -219.251    -101.674
  O       65.311    -221.361    -103.011
  H       66.077    -221.005    -103.500
  H       66.270    -223.587    -100.134
  H       66.089    -223.235    -101.836
  H       64.691    -223.226    -100.788

 6  7  8  9  10  11  12  13  14  15  16  26  30  31  32  33  35 0
 6-311+G(2d,p)
 ****
 37  38 0
 6-311+G(2d,p)
 ****
 1  2  3  4  5  17  18  19  20  21  22  23  24  25 0
 3-21G
 ****
 27  28  29  34  36  39  40  41  42  43  44  45  46 0
 3-21G
 ****


