%nproc=1
%NoSave
%Mem=1900MB
#P OB98/GEN NMR

erre ene a

0 1
  C     -184.794     336.324     -79.461
  O     -185.715     337.301     -79.911
  H     -184.977     336.090     -78.409
  H     -184.926     335.413     -80.053
  H     -183.767     336.685     -79.591
  P     -185.705     338.711     -79.145
  C     -184.446     339.589     -81.247
  O     -184.520     339.555     -79.827
  C     -185.309     340.738     -81.767
  O     -184.856     341.993     -81.212
  C     -185.254     340.909     -83.283
  O     -186.123     340.018     -83.963
  C     -185.720     342.347     -83.420
  O     -187.151     342.415     -83.252
  C     -185.013     343.019     -82.232
  N     -182.520     346.930     -84.413
  C     -183.833     346.716     -84.182
  N     -184.419     345.655     -83.577
  C     -183.492     344.768     -83.181
  C     -182.116     344.857     -83.339
  C     -181.629     345.999     -83.995
  N     -180.293     346.212     -84.259
  N     -181.493     343.736     -82.816
  C     -182.476     342.997     -82.341
  N     -183.707     343.560     -82.562
  O     -185.107     338.356     -77.702
  O     -187.015     339.427     -79.074
  H     -187.545     341.821     -83.918
  H     -185.264     339.093     -77.077
  H     -184.512     347.492     -84.537
  H     -182.351     342.046     -81.835
  H     -185.602     343.838     -81.793
  H     -185.493     342.776     -84.401
  H     -184.228     340.830     -83.660
  H     -186.344     340.576     -81.427
  H     -184.814     338.639     -81.646
  H     -180.057     346.984     -84.862
  H     -179.638     345.459     -84.080
  H     -183.405     339.731     -81.555
  P     -185.859     339.779     -85.529
  C     -185.479     337.202     -85.592
  O     -184.888     338.500     -85.638
  O     -184.908     341.002     -85.923
  O     -187.096     339.729     -86.367
  H     -185.060     341.281     -86.843
  H     -184.714     336.459     -85.675
  H     -186.169     337.096     -86.402
  H     -185.997     337.079     -84.664

 6  7  8  9  10  11  12  13  14  15  25  28  32  33  34  35 0
 6-311+G(2d,p)
 ****
 36  39  40 0
 6-311+G(2d,p)
 ****
 1  2  3  4  5  16  17  18  19  20  21  22  23  24 0
 3-21G
 ****
 26  27  29  30  31  37  38  41  42  43  44  45  46  47 0
 3-21G
 ****
 48 0
 3-21G
 ****


