%nproc=1
%NoSave
%Mem=1900MB
#P OB98/GEN NMR

erre ene a

0 1
  C      -22.268    -413.020    -282.352
  O      -21.240    -413.656    -281.613
  P      -19.761    -413.043    -281.749
  C      -18.628    -415.390    -281.866
  O      -18.882    -414.149    -282.502
  C      -18.839    -416.535    -282.860
  O      -19.864    -416.181    -283.812
  C      -17.603    -416.892    -283.676
  O      -16.745    -417.738    -282.928
  C      -18.226    -417.570    -284.891
  O      -18.566    -418.939    -284.599
  C      -19.490    -416.723    -285.111
  N      -21.671    -414.245    -288.943
  C      -22.052    -415.413    -288.304
  N      -23.210    -415.970    -288.720
  N      -21.367    -415.973    -287.344
  C      -20.227    -415.313    -287.044
  C      -19.731    -414.162    -287.613
  C      -20.525    -413.521    -288.636
  O      -20.279    -412.438    -289.163
  N      -18.531    -413.799    -287.058
  C      -18.320    -414.715    -286.130
  N      -19.327    -415.643    -286.067
  O      -19.219    -413.063    -280.250
  O      -19.693    -411.679    -282.370
  H      -19.000    -419.332    -285.376
  H      -19.314    -412.185    -279.833
  H      -22.244    -413.848    -289.663
  H      -17.465    -414.737    -285.472
  H      -20.337    -417.332    -285.459
  H      -17.546    -417.591    -285.745
  H      -23.779    -415.608    -289.472
  H      -17.075    -415.985    -283.988
  H      -23.505    -416.826    -288.265
  H      -19.197    -417.407    -282.297
  H      -19.314    -415.512    -281.025
  H      -17.600    -415.397    -281.487
  P      -15.235    -417.243    -282.698
  C      -14.387    -419.436    -283.800
  O      -14.319    -418.020    -283.756
  O      -14.847    -417.896    -281.292
  O      -15.069    -415.758    -282.677
  H      -14.267    -417.284    -280.797
  H      -14.166    -419.764    -284.816
  H      -15.375    -419.804    -283.515
  H      -13.637    -419.851    -283.122
  H      -23.197    -413.521    -282.175
  H      -22.034    -413.060    -283.395
  H      -22.350    -411.999    -282.043

 3  4  5  6  7  8  9  10  11  12  23  26  30  31 0
 6-311+G(2d,p)
 ****
 33  35  36  37  38 0
 6-311+G(2d,p)
 ****
 1  2  13  14  15  16  17  18  19  20  21  22  24  25 0
 3-21G
 ****
 27  28  29  32  34  39  40  41  42  43  44  45  46  47  48  49 0
 3-21G
 ****


