%nproc=1
%NoSave
%Mem=1900MB
#P OB98/GEN NMR

erre ene a

0 1
  C      640.495      19.929     -36.945
  O      641.401      20.247     -37.986
  P      640.792      20.459     -39.460
  C      642.343      18.542     -40.292
  O      641.022      19.071     -40.234
  C      642.351      17.212     -41.039
  O      641.666      16.207     -40.272
  C      641.632      17.263     -42.384
  O      642.445      17.885     -43.356
  C      641.382      15.781     -42.643
  O      642.508      15.167     -43.281
  C      641.177      15.219     -41.216
  N      639.802      14.858     -40.942
  C      639.589      13.538     -40.525
  O      640.544      12.755     -40.419
  N      638.308      13.132     -40.259
  C      637.314      13.960     -40.419
  N      636.071      13.504     -40.137
  C      637.495      15.356     -40.879
  C      638.753      15.734     -41.118
  O      641.836      21.451     -40.148
  O      639.391      20.992     -39.483
  H      642.399      14.195     -43.140
  H      641.408      21.976     -40.850
  H      636.645      16.006     -40.987
  H      638.977      16.733     -41.460
  H      641.806      14.325     -41.069
  H      640.517      15.627     -43.299
  H      640.678      17.788     -42.291
  H      643.397      16.899     -41.176
  H      635.977      12.541     -39.839
  H      642.713      18.374     -39.273
  H      635.241      14.078     -40.201
  H      642.995      19.274     -40.779
  P      641.737      18.359     -44.720
  C      643.158      16.638     -45.980
  O      641.853      17.104     -45.705
  O      642.838      19.362     -45.328
  O      640.399      18.997     -44.607
  H      642.468      19.808     -46.123
  H      643.091      15.694     -46.527
  H      643.706      16.460     -45.050
  H      643.693      17.356     -46.598
  H      641.032      19.817     -36.026
  H      639.991      19.014     -37.178
  H      639.777      20.716     -36.844

 3  4  5  6  7  8  9  10  11  12  13  21  23  27  28  29  30  32 0
 6-311+G(2d,p)
 ****
 34  35 0
 6-311+G(2d,p)
 ****
 1  2  14  15  16  17  18  19  20  22  24  25  26 0
 3-21G
 ****
 31  33  36  37  38  39  40  41  42  43  44  45  46 0
 3-21G
 ****


