%nproc=1
%NoSave
%Mem=1900MB
#P OB98/GEN NMR

erre ene a

0 1
  C      362.921    -525.766    -593.568
  O      361.774    -524.940    -593.661
  H      363.597    -525.525    -594.396
  H      362.631    -526.821    -593.642
  H      363.442    -525.587    -592.621
  P      360.627    -525.190    -592.563
  C      359.802    -522.931    -591.588
  O      359.667    -523.904    -592.621
  C      359.265    -521.582    -592.061
  O      360.240    -520.880    -592.875
  C      357.986    -521.665    -592.893
  O      356.845    -521.756    -592.052
  C      358.045    -520.358    -593.667
  O      357.599    -519.255    -592.853
  C      359.554    -520.225    -593.969
  N      362.162    -519.362    -598.207
  C      361.886    -518.522    -597.148
  N      362.333    -517.251    -597.242
  N      361.196    -518.887    -596.095
  C      360.758    -520.166    -596.158
  C      360.972    -521.094    -597.147
  C      361.782    -520.697    -598.277
  O      362.141    -521.416    -599.212
  N      360.387    -522.300    -596.841
  C      359.773    -522.080    -595.688
  N      359.979    -520.800    -595.228
  O      361.404    -525.006    -591.175
  O      359.948    -526.512    -592.630
  H      358.268    -519.065    -592.179
  H      361.052    -525.658    -590.532
  H      362.723    -519.034    -598.974
  H      359.208    -522.817    -595.141
  H      359.881    -519.180    -593.984
  H      357.398    -520.384    -594.549
  H      362.598    -516.834    -598.127
  H      358.035    -522.512    -593.597
  H      362.045    -516.613    -596.502
  H      359.100    -520.958    -591.163
  H      360.876    -522.829    -591.343
  H      359.259    -523.261    -590.702
  P      355.773    -522.909    -592.374
  C      355.043    -523.698    -590.013
  O      354.709    -522.947    -591.169
  O      356.618    -524.263    -592.160
  O      355.184    -522.842    -593.750
  H      356.835    -524.653    -593.042
  H      354.246    -523.631    -589.302
  H      355.940    -523.307    -589.581
  H      355.194    -524.722    -590.284

 6  7  8  9  10  11  12  13  14  15  26  29  33  34 0
 6-311+G(2d,p)
 ****
 36  38  39  40  41 0
 6-311+G(2d,p)
 ****
 1  2  3  4  5  16  17  18  19  20  21  22  23  24  25 0
 3-21G
 ****
 27  28  30  31  32  35  37  42  43  44  45  46  47 0
 3-21G
 ****
 48  49 0
 3-21G
 ****


