%nproc=1
%NoSave
%Mem=1900MB
#P OB98/GEN NMR

erre ene a

0 1
  C      167.091     257.558    1049.525
  O      167.417     257.138    1050.844
  P      166.524     256.061    1051.620
  C      168.537     255.322    1053.055
  O      167.234     255.893    1053.052
  C      168.918     254.882    1054.468
  O      169.229     256.064    1055.243
  C      167.825     254.154    1055.261
  O      167.742     252.766    1054.997
  C      168.325     254.364    1056.682
  O      169.391     253.436    1056.982
  C      168.866     255.799    1056.631
  N      167.507     258.965    1060.415
  C      168.549     258.118    1060.280
  N      168.837     257.300    1059.250
  C      167.917     257.428    1058.269
  C      166.792     258.250    1058.284
  C      166.604     259.040    1059.425
  N      165.535     259.921    1059.564
  N      166.081     258.116    1057.095
  C      166.758     257.218    1056.398
  N      167.888     256.788    1057.053
  O      166.286     254.792    1050.864
  O      165.174     256.838    1051.966
  H      170.153     253.718    1056.440
  H      164.467     256.210    1052.204
  H      169.265     258.096    1061.107
  H      166.481     256.867    1055.415
  H      169.763     255.933    1057.238
  H      167.530     254.212    1057.436
  H      166.851     254.653    1055.132
  H      169.823     254.266    1054.411
  H      169.237     256.083    1052.706
  H      165.543     260.540    1060.355
  H      164.958     260.107    1058.737
  H      168.578     254.472    1052.345
  P      166.282     252.080    1055.130
  C      167.155     250.189    1053.549
  O      166.489     250.528    1054.730
  O      165.199     252.793    1054.390
  O      166.044     252.038    1056.712
  H      166.645     251.431    1057.204
  H      167.328     249.101    1053.534
  H      168.116     250.694    1053.472
  H      166.535     250.440    1052.664
  H      167.810     258.277    1049.192
  H      166.117     258.000    1049.522
  H      167.101     256.713    1048.869

 3  4  5  6  7  8  9  10  11  12  22  25  29  30  31  32 0
 6-311+G(2d,p)
 ****
 33  36  37 0
 6-311+G(2d,p)
 ****
 1  2  13  14  15  16  17  18  19  20  21  23  24  26 0
 3-21G
 ****
 27  28  34  35  38  39  40  41  42  43  44  45  46  47  48 0
 3-21G
 ****


