%nproc=1
%NoSave
%Mem=1900MB
#P OB98/GEN NMR

erre ene a

0 1
  C      -23.746    -175.475     107.957
  O      -24.674    -175.402     109.020
  H      -22.781    -175.799     108.354
  H      -23.626    -174.490     107.501
  H      -24.078    -176.196     107.204
  P      -26.214    -175.173     108.639
  C      -27.370    -176.862     107.036
  O      -26.827    -176.625     108.326
  C      -27.850    -178.309     106.930
  O      -26.709    -179.192     107.125
  C      -28.910    -178.692     107.972
  O      -29.832    -179.602     107.364
  C      -28.104    -179.431     109.024
  O      -28.874    -180.323     109.818
  C      -27.068    -180.142     108.149
  N      -25.892    -180.569     108.904
  C      -25.720    -181.936     109.098
  O      -26.434    -182.810     108.610
  N      -24.663    -182.290     109.898
  C      -23.804    -181.435     110.523
  O      -22.889    -181.814     111.244
  C      -24.043    -180.004     110.287
  C      -25.061    -179.644     109.504
  O      -26.129    -174.488     107.196
  O      -27.003    -174.363     109.612
  H      -26.081    -173.518     107.282
  H      -29.132    -181.075     109.247
  H      -24.524    -183.276     110.049
  H      -23.388    -179.296     110.776
  H      -25.278    -178.596     109.326
  H      -27.519    -181.006     107.649
  H      -27.621    -178.712     109.695
  H      -29.453    -177.841     108.392
  H      -28.221    -178.484     105.913
  H      -26.599    -176.688     106.279
  H      -28.200    -176.170     106.862
  P      -31.284    -179.034     106.980
  C      -31.179    -176.668     105.859
  O      -31.050    -178.076     105.717
  O      -31.554    -178.033     108.196
  O      -32.302    -180.109     106.805
  H      -30.747    -177.588     108.508
  H      -30.988    -176.196     104.918
  H      -30.475    -176.317     106.584
  H      -32.171    -176.432     106.182

 6  7  8  9  10  11  12  13  14  15  16  27  31  32  33  34  35 0
 6-311+G(2d,p)
 ****
 36  37 0
 6-311+G(2d,p)
 ****
 1  2  3  4  5  17  18  19  20  21  22  23  24  25 0
 3-21G
 ****
 26  28  29  30  38  39  40  41  42  43  44  45 0
 3-21G
 ****


