%nproc=1
%NoSave
%Mem=1900MB
#P OB98/GEN NMR

erre ene a

0 1
  C      -51.630      86.242     -46.405
  O      -51.200      85.141     -45.633
  P      -51.164      83.643     -46.187
  C      -53.443      82.968     -45.138
  O      -52.678      83.123     -46.328
  C      -54.912      82.613     -45.411
  O      -55.550      83.708     -46.100
  C      -54.997      81.404     -46.347
  O      -54.894      80.094     -45.830
  C      -56.226      81.660     -47.211
  O      -57.380      80.960     -46.743
  C      -56.432      83.171     -47.098
  N      -58.601      85.158     -51.226
  C      -59.189      84.762     -50.040
  N      -60.539      84.718     -50.036
  N      -58.511      84.421     -48.975
  C      -57.170      84.423     -49.165
  C      -56.473      84.808     -50.287
  C      -57.234      85.222     -51.443
  O      -56.753      85.499     -52.540
  N      -55.125      84.610     -50.144
  C      -55.005      84.066     -48.950
  N      -56.223      83.896     -48.335
  O      -50.146      82.728     -45.585
  O      -50.744      83.885     -47.727
  H      -58.133      81.215     -47.306
  H      -50.188      83.130     -48.000
  H      -59.177      85.333     -52.040
  H      -54.071      83.748     -48.501
  H      -57.453      83.397     -46.765
  H      -56.054      81.318     -48.239
  H      -61.086      84.832     -50.877
  H      -54.148      81.482     -47.039
  H      -60.996      84.273     -49.247
  H      -55.466      82.486     -44.477
  H      -53.369      83.904     -44.576
  H      -52.996      82.187     -44.518
  P      -54.044      78.890     -46.452
  C      -55.856      77.968     -48.005
  O      -54.589      78.597     -47.928
  O      -54.526      77.601     -45.632
  O      -52.562      79.048     -46.349
  H      -53.843      76.906     -45.682
  H      -55.986      77.550     -49.005
  H      -56.642      78.709     -47.825
  H      -55.940      77.164     -47.268
  H      -51.564      87.135     -45.820
  H      -52.644      86.089     -46.710
  H      -51.008      86.336     -47.270

 3  4  5  6  7  8  9  10  11  12  23  26  30  31 0
 6-311+G(2d,p)
 ****
 33  35  36  37  38 0
 6-311+G(2d,p)
 ****
 1  2  13  14  15  16  17  18  19  20  21  22  24  25 0
 3-21G
 ****
 27  28  29  32  34  39  40  41  42  43  44  45  46  47  48  49 0
 3-21G
 ****


