%nproc=1
%NoSave
%Mem=1900MB
#P OB98/GEN NMR

erre ene a

0 1
  C       45.708      25.377    -118.634
  O       46.891      25.859    -119.239
  H       45.463      26.023    -117.786
  H       45.859      24.360    -118.265
  H       44.875      25.397    -119.341
  P       47.403      25.171    -120.593
  C       48.340      23.044    -119.480
  O       47.357      23.586    -120.354
  C       48.011      21.587    -119.169
  O       46.782      21.501    -118.414
  C       47.800      20.724    -120.408
  O       49.035      20.409    -121.019
  C       47.056      19.544    -119.801
  O       47.963      18.645    -119.144
  C       46.148      20.249    -118.766
  N       44.787      20.467    -119.261
  C       43.879      19.439    -119.031
  O       44.174      18.395    -118.454
  N       42.619      19.634    -119.533
  C       42.222      20.690    -120.300
  O       41.157      20.719    -120.910
  C       43.199      21.778    -120.445
  C       44.424      21.614    -119.940
  O       48.689      25.692    -121.138
  O       46.193      25.411    -121.617
  H       46.414      26.157    -122.207
  H       48.511      18.243    -119.847
  H       41.965      18.874    -119.414
  H       42.900      22.664    -120.993
  H       45.171      22.390    -120.061
  H       46.085      19.656    -117.844
  H       46.517      18.963    -120.551
  H       47.135      21.236    -121.114
  H       48.819      21.180    -118.545
  H       48.337      23.625    -118.550
  H       49.325      23.130    -119.950
  P       49.185      20.376    -122.611
  C       49.456      17.828    -122.557
  O       48.747      18.921    -123.123
  O       50.506      20.843    -123.133
  O       47.999      21.315    -123.139
  H       48.371      21.992    -123.738
  H       49.085      16.912    -122.967
  H       49.319      17.825    -121.496
  H       50.498      17.923    -122.782

 6  7  8  9  10  11  12  13  14  15  16  27  31  32  33  34  35 0
 6-311+G(2d,p)
 ****
 36  37 0
 6-311+G(2d,p)
 ****
 1  2  3  4  5  17  18  19  20  21  22  23  24  25 0
 3-21G
 ****
 26  28  29  30  38  39  40  41  42  43  44  45 0
 3-21G
 ****


