%nproc=1
%NoSave
%Mem=1900MB
#P OB98/GEN NMR

erre ene a

0 1
  C      577.503     339.847    -390.279
  O      577.952     341.186    -390.391
  P      579.470     341.574    -390.058
  C      580.488     343.498    -388.714
  O      579.457     342.522    -388.765
  C      580.384     344.352    -387.450
  O      579.106     345.043    -387.450
  C      580.473     343.559    -386.131
  O      581.134     344.406    -385.187
  C      579.015     343.396    -385.739
  O      578.838     343.120    -384.355
  C      578.461     344.741    -386.194
  N      573.925     345.051    -383.849
  C      575.187     345.060    -383.369
  N      576.343     344.943    -384.056
  C      576.103     344.820    -385.370
  C      574.871     344.776    -386.004
  C      573.736     344.916    -385.182
  N      572.445     344.947    -385.656
  N      575.037     344.575    -387.365
  C      576.338     344.519    -387.543
  N      577.024     344.725    -386.374
  O      580.262     342.099    -391.209
  O      580.103     340.212    -389.503
  H      577.886     342.956    -384.193
  H      580.691     339.816    -390.175
  H      575.283     345.173    -382.296
  H      576.839     344.322    -388.486
  H      578.700     345.550    -385.487
  H      578.564     342.575    -386.309
  H      580.991     342.602    -386.227
  H      581.170     345.117    -387.486
  H      580.386     344.143    -389.593
  H      571.725     345.180    -385.001
  H      572.295     345.110    -386.653
  H      581.464     343.005    -388.757
  P      582.445     343.878    -384.418
  C      582.876     342.726    -382.181
  O      581.918     343.021    -383.179
  O      583.456     344.925    -384.094
  O      583.029     342.767    -385.413
  H      583.960     342.587    -385.175
  H      583.494     341.882    -382.500
  H      582.362     342.461    -381.252
  H      583.530     343.586    -381.989
  H      576.467     339.795    -390.543
  H      577.632     339.511    -389.271
  H      578.071     339.224    -390.938

 3  4  5  6  7  8  9  10  11  12  22  25  29  30  31  32 0
 6-311+G(2d,p)
 ****
 33  36  37 0
 6-311+G(2d,p)
 ****
 1  2  13  14  15  16  17  18  19  20  21  23  24  26 0
 3-21G
 ****
 27  28  34  35  38  39  40  41  42  43  44  45  46  47  48 0
 3-21G
 ****


