%nproc=1
%NoSave
%Mem=1900MB
#P OB98/GEN NMR

erre ene a

0 1
  C      487.553     200.614     123.661
  O      487.748     202.024     123.605
  P      486.619     202.933     122.913
  C      486.637     204.238     125.135
  O      485.838     203.725     124.071
  C      486.119     205.605     125.585
  O      486.268     206.600     124.551
  C      484.641     205.610     125.930
  O      484.408     204.979     127.180
  C      484.327     207.099     125.888
  O      484.697     207.740     127.119
  C      485.240     207.588     124.744
  N      484.514     207.849     123.504
  C      483.772     209.036     123.468
  O      483.720     209.770     124.454
  N      483.096     209.349     122.315
  C      483.145     208.550     121.297
  N      482.458     208.906     120.180
  C      483.907     207.280     121.301
  C      484.552     206.997     122.429
  O      485.749     202.239     121.919
  O      487.478     204.097     122.218
  H      484.358     208.657     127.056
  H      487.001     204.406     121.421
  H      483.923     206.647     120.427
  H      485.136     206.084     122.519
  H      485.748     208.517     125.033
  H      483.257     207.280     125.737
  H      484.076     205.089     125.144
  H      486.705     205.920     126.461
  H      481.933     209.774     120.209
  H      487.673     204.320     124.809
  H      482.477     208.376     119.322
  H      486.618     203.519     125.962
  P      483.577     203.609     127.178
  C      485.182     202.090     128.535
  O      484.623     202.400     127.271
  O      483.040     203.518     125.667
  O      482.452     203.562     128.155
  H      482.163     203.094     125.659
  H      485.606     201.082     128.491
  H      484.430     202.123     129.323
  H      485.986     202.799     128.763
  H      488.389     200.157     124.149
  H      487.465     200.226     122.668
  H      486.659     200.399     124.208

 3  4  5  6  7  8  9  10  11  12  13  23  27  28  29  30  32 0
 6-311+G(2d,p)
 ****
 34  35 0
 6-311+G(2d,p)
 ****
 1  2  14  15  16  17  18  19  20  21  22  24  25  26 0
 3-21G
 ****
 31  33  36  37  38  39  40  41  42  43  44  45  46 0
 3-21G
 ****


