%nproc=1
%NoSave
%Mem=1900MB
#P OB98/GEN NMR

erre ene a

0 1
  C     -147.358    -612.032     573.044
  O     -148.651    -611.800     572.526
  H     -146.869    -611.091     573.293
  H     -147.442    -612.632     573.957
  H     -146.753    -612.590     572.323
  P     -148.745    -610.904     571.202
  C     -149.666    -612.925     569.845
  O     -148.665    -611.915     569.951
  C     -149.302    -613.915     568.737
  O     -147.891    -614.258     568.887
  C     -150.116    -615.220     568.755
  O     -150.784    -615.394     567.498
  C     -149.072    -616.314     568.899
  O     -149.333    -617.464     568.102
  C     -147.764    -615.627     568.492
  N     -143.440    -618.197     567.633
  C     -144.183    -617.405     566.824
  N     -145.268    -616.658     567.151
  C     -145.556    -616.776     568.457
  C     -144.880    -617.537     569.401
  C     -143.786    -618.292     568.938
  N     -143.082    -619.160     569.729
  N     -145.479    -617.428     570.644
  C     -146.524    -616.648     570.456
  N     -146.621    -616.237     569.129
  O     -147.334    -610.145     571.169
  O     -149.888    -609.946     571.160
  H     -148.554    -618.041     568.192
  H     -147.474    -609.198     570.995
  H     -143.865    -617.343     565.801
  H     -147.262    -616.380     571.191
  H     -147.619    -615.656     567.407
  H     -149.029    -616.634     569.953
  H     -150.839    -615.260     569.571
  H     -149.411    -613.410     567.772
  H     -150.640    -612.464     569.597
  H     -142.371    -619.749     569.301
  H     -143.391    -619.310     570.686
  H     -149.769    -613.432     570.807
  P     -152.287    -614.840     567.404
  C     -151.663    -613.188     565.476
  O     -152.221    -613.366     566.785
  O     -152.690    -614.584     568.935
  O     -153.235    -615.787     566.737
  H     -153.655    -614.654     569.062
  H     -151.694    -612.151     565.213
  H     -152.231    -613.753     564.766
  H     -150.648    -613.527     565.472

 6  7  8  9  10  11  12  13  14  15  25  28  32  33  34  35 0
 6-311+G(2d,p)
 ****
 36  39  40 0
 6-311+G(2d,p)
 ****
 1  2  3  4  5  16  17  18  19  20  21  22  23  24 0
 3-21G
 ****
 26  27  29  30  31  37  38  41  42  43  44  45  46  47  48 0
 3-21G
 ****


