%nproc=1
%NoSave
%Mem=1900MB
#P OB98/GEN NMR

erre ene a

0 1
  C     -111.113    -899.023     663.175
  O     -109.976    -898.523     662.482
  P     -108.590    -898.363     663.324
  C     -108.431    -895.803     663.425
  O     -108.657    -897.013     664.162
  C     -108.104    -894.643     664.392
  O     -106.936    -894.923     665.187
  C     -107.797    -893.353     663.651
  O     -108.985    -892.763     663.157
  C     -107.104    -892.563     664.760
  O     -108.058    -891.953     665.667
  C     -106.325    -893.673     665.531
  N     -104.900    -893.683     665.239
  C     -104.235    -892.463     665.399
  O     -104.872    -891.463     665.735
  N     -102.884    -892.423     665.151
  C     -102.256    -893.473     664.766
  N     -100.919    -893.383     664.559
  C     -102.934    -894.783     664.569
  C     -104.225    -894.833     664.820
  O     -107.336    -898.593     662.518
  O     -108.737    -899.513     664.460
  H     -108.642    -891.433     665.086
  H     -107.861    -899.843     664.693
  H     -102.353    -895.663     664.259
  H     -104.803    -895.733     664.667
  H     -106.437    -893.563     666.607
  H     -106.486    -891.763     664.370
  H     -107.107    -893.513     662.841
  H     -108.973    -894.513     665.047
  H     -100.474    -892.473     664.676
  H     -109.326    -895.583     662.841
  H     -100.342    -894.173     664.305
  H     -107.613    -895.973     662.712
  P     -109.571    -893.323     661.780
  C     -107.528    -892.463     660.427
  O     -108.362    -893.563     660.797
  O     -110.341    -892.053     661.172
  O     -110.519    -894.503     661.937
  H     -111.098    -892.343     660.666
  H     -106.573    -892.853     660.034
  H     -107.281    -891.843     661.348
  H     -107.999    -891.843     659.710
  H     -111.945    -899.075     662.504
  H     -111.351    -898.369     663.988
  H     -110.898    -900.000     663.554

 3  4  5  6  7  8  9  10  11  12  13  23  27  28  29  30  32 0
 6-311+G(2d,p)
 ****
 34  35 0
 6-311+G(2d,p)
 ****
 1  2  14  15  16  17  18  19  20  21  22  24  25  26 0
 3-21G
 ****
 31  33  36  37  38  39  40  41  42  43  44  45  46 0
 3-21G
 ****


