%nproc=1
%NoSave
%Mem=1900MB
#P OB98/GEN NMR

erre ene a

0 1
  C      -34.824      94.456     989.082
  O      -35.938      95.322     988.994
  H      -34.572      94.311     990.135
  H      -33.964      94.895     988.568
  H      -35.067      93.482     988.643
  P      -36.455      95.680     987.517
  C      -35.583      98.120     987.653
  O      -35.506      96.866     986.989
  C      -35.272      99.259     986.676
  O      -33.920      99.157     986.192
  C      -36.175      99.294     985.449
  O      -37.407      99.945     985.728
  C      -35.306     100.074     984.462
  O      -35.393     101.492     984.705
  C      -33.906      99.544     984.795
  N      -31.119      98.180     980.804
  C      -31.264      99.417     981.413
  N      -30.620     100.453     980.827
  N      -31.994      99.620     982.475
  C      -32.610      98.499     982.923
  C      -32.532      97.221     982.416
  C      -31.701      96.997     981.256
  O      -31.473      95.924     980.714
  N      -33.296      96.346     983.155
  C      -33.858      97.105     984.081
  N      -33.490      98.424     983.970
  O      -37.852      96.416     987.776
  O      -36.604      94.519     986.593
  H      -36.324     101.767     984.672
  H      -38.449      96.246     987.020
  H      -30.532      98.090     979.998
  H      -34.539      96.751     984.847
  H      -33.137     100.322     984.681
  H      -35.619      99.909     983.432
  H      -30.332     100.424     979.860
  H      -36.341      98.273     985.060
  H      -30.737     101.361     981.254
  H      -35.355     100.204     987.240
  H      -34.854      98.141     988.469
  H      -36.590      98.245     988.068
  P      -38.732      99.359     985.050
  C      -38.934     101.438     983.499
  O      -38.826     100.028     983.591
  O      -39.915     100.069     985.857
  O      -38.843      97.867     985.081
  H      -40.755      99.590     985.716
  H      -38.987     101.725     982.470
  H      -38.078     101.892     983.953
  H      -39.819     101.762     984.005

 6  7  8  9  10  11  12  13  14  15  26  29  33  34 0
 6-311+G(2d,p)
 ****
 36  38  39  40  41 0
 6-311+G(2d,p)
 ****
 1  2  3  4  5  16  17  18  19  20  21  22  23  24  25 0
 3-21G
 ****
 27  28  30  31  32  35  37  42  43  44  45  46  47 0
 3-21G
 ****
 48  49 0
 3-21G
 ****


