%nproc=1
%NoSave
%Mem=1900MB
#P OB98/GEN NMR

erre ene a

0 1
  C     -439.110    -495.601     272.476
  O     -438.425    -496.317     273.489
  H     -440.024    -495.178     272.905
  H     -439.390    -496.275     271.662
  H     -438.492    -494.784     272.092
  P     -436.953    -496.869     273.183
  C     -437.955    -499.223     273.563
  O     -436.869    -498.336     273.827
  C     -437.427    -500.621     273.263
  O     -436.597    -500.597     272.077
  C     -436.555    -501.208     274.370
  O     -437.348    -501.647     275.456
  C     -435.838    -502.312     273.606
  O     -436.672    -503.468     273.471
  C     -435.605    -501.633     272.229
  N     -434.254    -501.093     272.078
  C     -433.208    -502.009     272.106
  O     -433.377    -503.213     272.295
  N     -431.950    -501.490     271.936
  C     -431.639    -500.159     271.820
  O     -430.486    -499.748     271.718
  C     -432.779    -499.233     271.827
  C     -434.010    -499.733     271.952
  O     -435.828    -495.957     273.545
  O     -436.985    -497.173     271.610
  H     -436.815    -503.819     274.375
  H     -436.551    -496.446     271.126
  H     -431.177    -502.134     271.963
  H     -432.566    -498.180     271.749
  H     -434.867    -499.061     271.971
  H     -435.771    -502.355     271.419
  H     -434.920    -502.645     274.104
  H     -435.811    -500.468     274.700
  H     -438.290    -501.273     273.057
  H     -438.511    -498.842     272.693
  H     -438.618    -499.233     274.436
  P     -437.690    -500.662     276.663
  C     -436.260    -502.179     278.156
  O     -437.495    -501.481     278.035
  O     -438.997    -499.947     276.554
  O     -436.470    -499.626     276.686
  H     -436.759    -498.761     276.336
  H     -436.229    -502.688     279.097
  H     -435.450    -501.482     278.100
  H     -436.174    -502.891     277.362

 6  7  8  9  10  11  12  13  14  15  16  26  31  32  33  34  35 0
 6-311+G(2d,p)
 ****
 36  37 0
 6-311+G(2d,p)
 ****
 1  2  3  4  5  17  18  19  20  21  22  23  24  25 0
 3-21G
 ****
 27  28  29  30  38  39  40  41  42  43  44  45 0
 3-21G
 ****


