%nproc=1
%NoSave
%Mem=1900MB
#P OB98/GEN NMR

erre ene a

0 1
  C      267.563    -350.357    -176.155
  O      267.170    -351.326    -175.204
  H      266.714    -350.141    -176.807
  H      268.384    -350.745    -176.762
  H      267.872    -349.435    -175.656
  P      268.248    -351.723    -174.085
  C      266.455    -350.853    -172.424
  O      267.443    -351.839    -172.699
  C      265.057    -351.397    -172.705
  O      264.926    -351.644    -174.138
  C      264.733    -352.714    -171.982
  O      263.342    -352.700    -171.636
  C      264.938    -353.757    -173.070
  O      264.244    -354.974    -172.801
  C      264.423    -352.987    -174.284
  N      263.929    -357.059    -177.197
  C      263.315    -356.729    -176.006
  N      262.426    -357.620    -175.514
  N      263.545    -355.621    -175.356
  C      264.430    -354.806    -175.984
  C      265.111    -355.018    -177.155
  C      264.864    -356.264    -177.853
  O      265.396    -356.622    -178.899
  N      265.941    -353.964    -177.440
  C      265.761    -353.116    -176.443
  N      264.853    -353.584    -175.532
  O      269.093    -350.374    -173.917
  O      269.115    -352.889    -174.417
  H      263.306    -354.752    -172.624
  H      269.880    -350.395    -174.494
  H      263.725    -357.932    -177.649
  H      266.259    -352.165    -176.332
  H      263.328    -352.942    -174.315
  H      266.005    -353.987    -173.176
  H      262.162    -358.471    -175.982
  H      265.335    -352.900    -171.089
  H      261.932    -357.374    -174.662
  H      264.322    -350.621    -172.452
  H      266.637    -349.980    -173.062
  H      266.534    -350.549    -171.375
  P      262.930    -352.128    -170.199
  C      260.497    -352.216    -171.111
  O      261.360    -352.373    -169.997
  O      263.014    -350.539    -170.411
  O      263.809    -352.581    -169.081
  H      263.215    -350.102    -169.564
  H      259.489    -352.414    -170.812
  H      260.781    -352.902    -171.882
  H      260.570    -351.214    -171.480

 6  7  8  9  10  11  12  13  14  15  26  29  33  34 0
 6-311+G(2d,p)
 ****
 36  38  39  40  41 0
 6-311+G(2d,p)
 ****
 1  2  3  4  5  16  17  18  19  20  21  22  23  24  25 0
 3-21G
 ****
 27  28  30  31  32  35  37  42  43  44  45  46  47 0
 3-21G
 ****
 48  49 0
 3-21G
 ****


