%nproc=1
%NoSave
%Mem=1900MB
#P OB98/GEN NMR

erre ene a

0 1
  C      195.155     -68.788     -71.825
  O      195.890     -67.599     -71.620
  H      195.827     -69.555     -72.219
  H      194.355     -68.615     -72.549
  H      194.731     -69.143     -70.880
  P      195.117     -66.373     -70.933
  C      193.661     -64.406     -71.828
  O      194.290     -65.649     -72.104
  C      192.788     -63.989     -73.014
  O      193.654     -63.706     -74.148
  C      191.801     -65.079     -73.452
  O      190.581     -64.460     -73.871
  C      192.493     -65.717     -74.645
  O      191.603     -66.373     -75.540
  C      193.191     -64.501     -75.261
  N      194.307     -64.873     -76.131
  C      194.075     -64.883     -77.502
  O      193.023     -64.531     -78.039
  N      195.118     -65.327     -78.276
  C      196.326     -65.771     -77.821
  O      197.210     -66.178     -78.564
  C      196.509     -65.744     -76.362
  C      195.506     -65.306     -75.596
  O      196.286     -65.329     -70.615
  O      194.308     -66.713     -69.727
  H      196.653     -65.485     -69.722
  H      192.128     -66.700     -76.300
  H      194.968     -65.339     -79.273
  H      197.451     -66.097     -75.965
  H      195.603     -65.287     -74.516
  H      192.471     -63.891     -75.822
  H      193.230     -66.454     -74.302
  H      191.594     -65.808     -72.666
  H      192.266     -63.059     -72.763
  H      194.429     -63.645     -71.660
  H      193.050     -64.504     -70.922
  P      189.268     -64.740     -72.989
  C      187.070     -66.096     -73.404
  O      188.392     -65.797     -73.822
  O      188.481     -63.359     -73.143
  O      189.587     -65.136     -71.584
  H      188.565     -62.961     -74.027
  H      186.639     -66.814     -74.070
  H      186.482     -65.202     -73.414
  H      187.092     -66.497     -72.412

 6  7  8  9  10  11  12  13  14  15  16  27  31  32  33  34  35 0
 6-311+G(2d,p)
 ****
 36  37 0
 6-311+G(2d,p)
 ****
 1  2  3  4  5  17  18  19  20  21  22  23  24  25 0
 3-21G
 ****
 26  28  29  30  38  39  40  41  42  43  44  45 0
 3-21G
 ****


