%nproc=1
%NoSave
%Mem=1900MB
#P OB98/GEN NMR

erre ene a

0 1
  C     -165.941    -200.731     128.549
  O     -164.705    -201.418     128.787
  P     -164.052    -201.515     130.249
  C     -165.673    -203.148     131.408
  O     -164.369    -202.964     130.863
  C     -165.645    -204.035     132.657
  O     -166.931    -204.044     133.307
  C     -165.296    -205.495     132.387
  O     -163.902    -205.652     132.206
  C     -165.864    -206.171     133.632
  O     -164.951    -206.044     134.734
  C     -167.133    -205.346     133.890
  N     -170.341    -209.306     134.301
  C     -169.251    -208.949     135.013
  N     -168.444    -207.881     134.840
  C     -168.876    -207.124     133.817
  C     -169.970    -207.364     132.997
  C     -170.723    -208.516     133.270
  N     -171.823    -208.886     132.533
  N     -170.085    -206.380     132.039
  C     -169.089    -205.551     132.285
  N     -168.331    -205.958     133.350
  O     -164.401    -200.378     131.155
  O     -162.473    -201.563     129.985
  H     -165.425    -206.314     135.541
  H     -162.000    -201.188     130.751
  H     -168.990    -209.612     135.836
  H     -168.879    -204.648     131.729
  H     -167.300    -205.187     134.961
  H     -166.053    -207.238     133.485
  H     -165.837    -205.852     131.503
  H     -164.926    -203.596     133.361
  H     -166.306    -203.612     130.643
  H     -172.292    -209.745     132.772
  H     -172.088    -208.328     131.734
  H     -166.087    -202.164     131.658
  P     -163.344    -206.566     131.016
  C     -163.255    -204.803     129.154
  O     -162.504    -205.613     130.040
  O     -164.353    -207.435     130.342
  O     -162.200    -207.444     131.718
  H     -162.129    -208.304     131.261
  H     -163.575    -205.400     128.298
  H     -162.621    -203.986     128.805
  H     -164.132    -204.383     129.658
  H     -166.188    -200.791     127.510
  H     -165.839    -199.704     128.833
  H     -166.718    -201.185     129.127

 3  4  5  6  7  8  9  10  11  12  22  25  29  30  31  32 0
 6-311+G(2d,p)
 ****
 33  36  37 0
 6-311+G(2d,p)
 ****
 1  2  13  14  15  16  17  18  19  20  21  23  24  26 0
 3-21G
 ****
 27  28  34  35  38  39  40  41  42  43  44  45  46  47  48 0
 3-21G
 ****


