%nproc=1
%NoSave
%Mem=1900MB
#P OB98/GEN NMR

erre ene a

0 1
  C      229.405    -225.970    -326.893
  O      229.911    -226.701    -325.795
  H      230.223    -225.408    -327.351
  H      228.639    -225.263    -326.552
  H      228.979    -226.645    -327.641
  P      228.894    -227.690    -325.048
  C      229.611    -227.093    -322.612
  O      228.602    -227.034    -323.609
  C      228.999    -226.849    -321.235
  O      230.070    -226.788    -320.254
  C      228.217    -225.528    -321.142
  O      227.080    -225.712    -320.299
  C      229.206    -224.586    -320.473
  O      228.595    -223.488    -319.809
  C      229.933    -225.550    -319.526
  N      231.238    -225.048    -319.102
  C      231.313    -224.432    -317.861
  O      230.383    -224.342    -317.059
  N      232.536    -223.892    -317.541
  C      233.648    -223.896    -318.334
  O      234.712    -223.375    -318.003
  C      233.498    -224.550    -319.639
  C      232.319    -225.089    -319.963
  O      229.808    -228.959    -324.687
  O      227.672    -228.065    -325.814
  H      229.777    -229.617    -325.413
  H      229.308    -222.895    -319.491
  H      232.615    -223.442    -316.641
  H      234.360    -224.561    -320.297
  H      232.177    -225.572    -320.920
  H      229.309    -225.755    -318.645
  H      229.904    -224.182    -321.216
  H      227.900    -225.154    -322.118
  H      228.360    -227.703    -320.968
  H      230.363    -226.323    -322.821
  H      230.093    -228.080    -322.644
  P      225.648    -225.271    -320.882
  C      225.286    -223.360    -319.129
  O      225.476    -223.720    -320.491
  O      224.653    -226.042    -319.900
  O      225.487    -225.589    -322.336
  H      224.969    -226.085    -318.981
  H      225.191    -222.297    -319.051
  H      226.127    -223.686    -318.553
  H      224.397    -223.826    -318.758

 6  7  8  9  10  11  12  13  14  15  16  27  31  32  33  34  35 0
 6-311+G(2d,p)
 ****
 36  37 0
 6-311+G(2d,p)
 ****
 1  2  3  4  5  17  18  19  20  21  22  23  24  25 0
 3-21G
 ****
 26  28  29  30  38  39  40  41  42  43  44  45 0
 3-21G
 ****


