%nproc=1
%NoSave
%Mem=1900MB
#P OB98/GEN NMR

erre ene a

0 1
  C      -80.609     210.118     -25.447
  O      -81.026     209.615     -26.721
  P      -81.812     208.224     -26.867
  C      -82.920     208.794     -29.115
  O      -82.077     207.880     -28.417
  C      -82.635     208.846     -30.622
  O      -81.409     209.576     -30.897
  C      -82.493     207.475     -31.303
  O      -82.968     207.647     -32.639
  C      -80.986     207.273     -31.295
  O      -80.543     206.292     -32.227
  C      -80.509     208.687     -31.589
  N      -76.001     210.683     -32.983
  C      -77.232     210.789     -33.522
  N      -78.391     210.260     -33.077
  C      -78.206     209.598     -31.923
  C      -77.010     209.419     -31.245
  C      -75.863     209.985     -31.829
  N      -74.596     209.843     -31.308
  N      -77.199     208.650     -30.109
  C      -78.487     208.368     -30.105
  N      -79.141     208.924     -31.183
  O      -83.035     208.116     -26.005
  O      -80.740     207.113     -26.423
  H      -80.640     206.660     -33.124
  H      -81.167     206.480     -25.814
  H      -77.296     211.367     -34.442
  H      -78.997     207.753     -29.376
  H      -80.584     208.910     -32.665
  H      -80.674     206.941     -30.294
  H      -83.037     206.677     -30.790
  H      -83.449     209.418     -31.088
  H      -82.781     209.792     -28.685
  H      -73.822     210.216     -31.851
  H      -74.454     209.224     -30.524
  H      -83.968     208.507     -28.947
  P      -84.436     207.156     -33.084
  C      -85.057     209.324     -34.301
  O      -84.788     207.938     -34.438
  O      -85.480     207.251     -32.016
  O      -84.226     205.648     -33.572
  H      -85.084     205.183     -33.568
  H      -86.057     209.465     -33.892
  H      -85.002     209.793     -35.285
  H      -84.324     209.807     -33.644
  H      -80.106     211.053     -25.580
  H      -79.944     209.417     -24.987
  H      -81.466     210.260     -24.822

 3  4  5  6  7  8  9  10  11  12  22  25  29  30  31  32 0
 6-311+G(2d,p)
 ****
 33  36  37 0
 6-311+G(2d,p)
 ****
 1  2  13  14  15  16  17  18  19  20  21  23  24  26 0
 3-21G
 ****
 27  28  34  35  38  39  40  41  42  43  44  45  46  47  48 0
 3-21G
 ****


