%nproc=1
%NoSave
%Mem=1900MB
#P OB98/GEN NMR

erre ene a

0 1
  C      107.182    -167.757    -144.167
  O      107.403    -169.156    -144.194
  P      108.671    -169.726    -143.397
  C      107.463    -170.665    -141.284
  O      108.315    -169.670    -141.835
  C      108.098    -171.245    -140.019
  O      109.064    -172.263    -140.364
  C      108.862    -170.217    -139.195
  O      107.984    -169.419    -138.419
  C      109.772    -171.108    -138.358
  O      109.081    -171.608    -137.201
  C      110.087    -172.253    -139.342
  N      111.423    -172.148    -139.918
  C      112.476    -172.506    -139.079
  O      112.310    -172.868    -137.914
  N      113.730    -172.393    -139.610
  C      114.036    -171.915    -140.853
  O      115.184    -171.783    -141.255
  C      112.884    -171.525    -141.684
  C      111.654    -171.651    -141.185
  O      109.780    -168.587    -143.577
  O      109.157    -171.054    -143.872
  H      109.697    -172.219    -136.754
  H      110.665    -168.995    -143.651
  H      114.505    -172.670    -139.030
  H      113.089    -171.139    -142.675
  H      110.795    -171.355    -141.777
  H      110.008    -173.221    -138.831
  H      110.655    -170.573    -137.999
  H      109.478    -169.593    -139.852
  H      107.308    -171.712    -139.417
  H      107.312    -171.460    -142.019
  H      106.490    -170.218    -141.056
  P      108.518    -167.971    -137.975
  C      108.478    -166.901    -140.359
  O      109.243    -167.380    -139.276
  O      109.704    -168.382    -136.983
  O      107.457    -167.119    -137.362
  H      110.135    -169.211    -137.249
  H      107.557    -166.421    -140.016
  H      108.227    -167.735    -141.020
  H      109.072    -166.172    -140.915
  H      106.307    -167.523    -144.737
  H      108.027    -167.254    -144.588
  H      107.044    -167.437    -143.155

 3  4  5  6  7  8  9  10  11  12  13  23  28  29  30  31  32 0
 6-311+G(2d,p)
 ****
 33  34 0
 6-311+G(2d,p)
 ****
 1  2  14  15  16  17  18  19  20  21  22  24  25  26 0
 3-21G
 ****
 27  35  36  37  38  39  40  41  42  43  44  45 0
 3-21G
 ****


