%nproc=1
%NoSave
%Mem=1900MB
#P OB98/GEN NMR

erre ene a

0 1
  C      446.246     652.200     130.277
  O      446.414     650.934     129.660
  H      446.291     652.968     129.506
  H      447.054     652.378     130.992
  H      445.278     652.260     130.780
  P      446.290     649.611     130.569
  C      448.207     648.527     129.247
  O      446.866     648.395     129.686
  C      448.506     647.522     128.139
  O      448.525     646.187     128.706
  C      447.476     647.519     127.000
  O      448.165     647.316     125.763
  C      446.593     646.333     127.306
  O      445.983     645.791     126.140
  C      447.590     645.373     127.963
  N      444.372     641.482     128.107
  C      444.901     642.158     127.031
  N      444.485     641.763     125.798
  N      445.750     643.139     127.139
  C      446.082     643.427     128.423
  C      445.628     642.823     129.571
  C      444.677     641.751     129.442
  O      444.163     641.117     130.357
  N      446.176     643.415     130.692
  C      446.960     644.362     130.209
  N      446.931     644.424     128.845
  O      444.938     649.362     131.157
  O      447.404     649.814     131.698
  H      446.703     645.509     125.538
  H      447.000     650.125     132.529
  H      443.709     640.733     127.965
  H      447.557     645.046     130.815
  H      448.162     644.781     127.232
  H      445.805     646.616     128.010
  H      443.851     641.000     125.641
  H      446.902     648.460     126.946
  H      444.889     642.238     124.993
  H      449.521     647.714     127.748
  H      448.873     648.339     130.102
  H      448.379     649.548     128.877
  P      448.188     648.494     124.680
  C      448.068     647.449     122.326
  O      448.918     647.943     123.354
  O      448.686     649.819     125.176
  O      446.654     648.590     124.214
  H      446.466     649.512     123.951
  H      448.663     647.113     121.502
  H      447.413     648.230     121.999
  H      447.489     646.633     122.704

 6  7  8  9  10  11  12  13  14  15  26  29  33  34 0
 6-311+G(2d,p)
 ****
 36  38  39  40  41 0
 6-311+G(2d,p)
 ****
 1  2  3  4  5  16  17  18  19  20  21  22  23  24  25 0
 3-21G
 ****
 27  28  30  31  32  35  37  42  43  44  45  46  47 0
 3-21G
 ****
 48  49 0
 3-21G
 ****


