%nproc=1
%NoSave
%Mem=1900MB
#P OB98/GEN NMR

erre ene a

0 1
  C     1082.914     784.972    -365.843
  O     1083.995     784.171    -365.423
  P     1085.361     784.933    -365.002
  C     1085.632     783.768    -362.714
  O     1086.138     783.950    -364.019
  C     1086.127     782.436    -362.116
  O     1085.568     781.324    -362.858
  C     1087.665     782.244    -362.136
  O     1088.038     781.493    -360.980
  C     1087.903     781.432    -363.397
  O     1089.157     780.769    -363.388
  C     1086.677     780.535    -363.368
  N     1086.477     776.414    -366.301
  C     1086.951     776.540    -365.013
  N     1087.387     775.433    -364.425
  N     1087.010     777.689    -364.380
  C     1086.513     778.724    -365.112
  C     1086.049     778.713    -366.400
  C     1085.955     777.459    -367.093
  O     1085.476     777.258    -368.189
  N     1085.718     780.004    -366.838
  C     1085.924     780.745    -365.760
  N     1086.373     780.010    -364.695
  O     1084.840     786.099    -364.062
  O     1086.204     785.415    -366.160
  H     1089.165     780.127    -362.650
  H     1084.712     786.941    -364.587
  H     1086.429     775.524    -366.743
  H     1085.761     781.807    -365.736
  H     1086.812     779.672    -362.699
  H     1087.873     782.096    -364.266
  H     1087.349     774.517    -364.824
  H     1088.197     783.208    -362.140
  H     1087.739     775.505    -363.457
  H     1085.759     782.358    -361.083
  H     1084.542     783.695    -362.737
  H     1085.905     784.624    -362.056
  P     1089.202     782.047    -360.055
  C     1088.738     780.645    -357.937
  O     1089.603     780.889    -359.019
  O     1088.504     783.138    -359.147
  O     1090.362     782.658    -360.800
  H     1089.118     783.853    -358.938
  H     1088.890     779.618    -357.554
  H     1087.693     780.765    -358.197
  H     1088.963     781.357    -357.137
  H     1082.081     784.347    -366.090
  H     1083.203     785.538    -366.704
  H     1082.637     785.640    -365.054

 3  4  5  6  7  8  9  10  11  12  23  26  30  31 0
 6-311+G(2d,p)
 ****
 33  35  36  37  38 0
 6-311+G(2d,p)
 ****
 1  2  13  14  15  16  17  18  19  20  21  22  24  25 0
 3-21G
 ****
 27  28  29  32  34  39  40  41  42  43  44  45  46  47  48  49 0
 3-21G
 ****


