%nproc=1
%NoSave
%Mem=1900MB
#P OB98/GEN NMR

erre ene a

0 1
  C       -8.443       8.072      45.206
  O       -7.034       8.022      45.344
  P       -6.259       9.360      45.770
  C       -6.373      10.862      47.922
  O       -7.006       9.923      47.073
  C       -7.408      11.819      48.522
  O       -7.857      12.737      47.488
  C       -8.654      11.129      49.094
  O       -9.068      11.883      50.241
  C       -9.664      11.271      47.969
  O      -11.004      11.158      48.419
  C       -9.294      12.656      47.427
  N       -9.763      12.890      46.062
  C      -11.067      13.343      45.891
  O      -11.852      13.536      46.817
  N      -11.461      13.545      44.593
  C      -10.723      13.281      43.477
  O      -11.133      13.464      42.338
  C       -9.371      12.758      43.718
  C       -8.958      12.600      44.976
  O       -6.702      10.359      44.604
  O       -4.788       9.179      45.921
  H       -7.616      10.215      44.306
  H      -11.176      11.888      49.043
  H      -12.391      13.909      44.448
  H       -8.758      12.523      42.857
  H       -7.966      12.216      45.179
  H       -9.688      13.435      48.090
  H       -9.488      10.489      47.222
  H       -8.464      10.091      49.381
  H       -6.914      12.418      49.297
  H       -5.647      11.441      47.347
  H       -5.831      10.329      48.710
  P       -9.954      11.139      51.359
  C       -9.513       9.160      53.014
  O       -9.123       9.865      51.858
  O      -11.088      10.484      50.431
  O      -10.515      12.032      52.415
  H      -10.724      10.018      49.662
  H       -9.052       8.169      52.994
  H      -10.598       9.038      53.062
  H       -9.164       9.691      53.903
  H       -8.808       7.108      44.920
  H       -8.703       8.789      44.455
  H       -8.883       8.357      46.139

 3  4  5  6  7  8  9  10  11  12  13  24  28  29  30  31  32 0
 6-311+G(2d,p)
 ****
 33  34 0
 6-311+G(2d,p)
 ****
 1  2  14  15  16  17  18  19  20  21  22  23  25  26  27 0
 3-21G
 ****
 35  36  37  38  39  40  41  42  43  44  45 0
 3-21G
 ****


