%nproc=1
%NoSave
%Mem=1900MB
#P OB98/GEN NMR

erre ene a

0 1
  C      214.293    -284.961    -890.740
  O      213.934    -286.271    -891.130
  H      213.723    -284.657    -889.870
  H      215.360    -284.951    -890.490
  H      214.122    -284.265    -891.570
  P      212.396    -286.517    -891.510
  C      212.940    -285.558    -893.860
  O      212.055    -285.546    -892.740
  C      212.476    -284.547    -894.910
  O      211.223    -285.016    -895.470
  C      212.258    -283.121    -894.370
  O      213.069    -282.195    -895.100
  C      210.792    -282.818    -894.690
  O      210.581    -281.486    -895.140
  C      210.440    -283.848    -895.760
  N      206.365    -284.677    -898.700
  C      207.695    -284.783    -898.960
  N      208.723    -284.651    -898.110
  C      208.277    -284.412    -896.850
  C      206.964    -284.306    -896.440
  C      205.980    -284.440    -897.430
  N      204.626    -284.289    -897.180
  N      206.901    -284.060    -895.080
  C      208.153    -283.967    -894.700
  N      209.027    -284.153    -895.740
  O      211.608    -285.852    -890.280
  O      212.008    -287.943    -891.710
  H      211.049    -280.898    -894.520
  H      210.918    -286.467    -889.960
  H      207.963    -284.985    -900.000
  H      208.494    -283.717    -893.690
  H      210.710    -283.503    -896.760
  H      210.200    -282.971    -893.780
  H      212.453    -283.039    -893.300
  H      213.213    -284.536    -895.720
  H      212.952    -286.555    -894.310
  H      204.007    -284.284    -897.980
  H      204.341    -284.001    -896.260
  H      213.951    -285.318    -893.510
  P      214.486    -281.802    -894.420
  C      215.574    -280.712    -896.530
  O      215.584    -281.794    -895.600
  O      214.860    -283.110    -893.580
  O      214.431    -280.580    -893.570
  H      215.439    -282.875    -892.840
  H      216.357    -280.850    -897.246
  H      215.727    -279.791    -896.007
  H      214.630    -280.683    -897.034

 6  7  8  9  10  11  12  13  14  15  25  28  32  33  34  35 0
 6-311+G(2d,p)
 ****
 36  39  40 0
 6-311+G(2d,p)
 ****
 1  2  3  4  5  16  17  18  19  20  21  22  23  24 0
 3-21G
 ****
 26  27  29  30  31  37  38  41  42  43  44  45  46  47  48 0
 3-21G
 ****


