%nproc=1
%NoSave
%Mem=1900MB
#P OB98/GEN NMR

erre ene a

0 1
  C      175.590     749.597    -689.418
  O      175.256     749.719    -690.788
  H      175.258     750.497    -688.901
  H      176.674     749.506    -689.312
  H      175.096     748.735    -688.969
  P      175.326     748.421    -691.723
  C      177.427     749.280    -692.958
  O      176.076     748.854    -693.073
  C      178.312     748.601    -694.008
  O      178.308     747.161    -693.777
  C      177.762     748.810    -695.431
  O      178.792     748.776    -696.416
  C      176.852     747.614    -695.631
  O      176.620     747.297    -697.001
  C      177.607     746.530    -694.858
  N      175.165     742.159    -695.843
  C      175.782     743.036    -696.718
  N      175.757     742.680    -698.032
  N      176.363     744.137    -696.349
  C      176.261     744.391    -695.014
  C      175.654     743.617    -694.044
  C      175.038     742.365    -694.467
  O      174.463     741.576    -693.747
  N      175.739     744.209    -692.818
  C      176.389     745.326    -693.030
  N      176.743     745.474    -694.342
  O      173.815     748.231    -692.215
  O      175.865     747.187    -691.065
  H      175.966     746.583    -697.033
  H      173.669     747.304    -692.489
  H      174.769     741.297    -696.180
  H      176.638     746.053    -692.262
  H      178.355     746.051    -695.504
  H      175.874     747.845    -695.186
  H      175.145     741.943    -698.368
  H      177.208     749.749    -695.536
  H      175.924     743.439    -698.700
  H      179.351     748.932    -693.916
  H      177.766     749.023    -691.942
  H      177.500     750.371    -693.047
  P      179.480     750.158    -696.854
  C      178.202     750.597    -699.130
  O      179.407     750.329    -698.441
  O      181.038     749.904    -696.573
  O      178.974     751.359    -696.121
  H      181.359     750.500    -695.871
  H      178.400     750.669    -700.179
  H      177.789     751.520    -698.780
  H      177.506     749.804    -698.952

 6  7  8  9  10  11  12  13  14  15  26  29  33  34 0
 6-311+G(2d,p)
 ****
 36  38  39  40  41 0
 6-311+G(2d,p)
 ****
 1  2  3  4  5  16  17  18  19  20  21  22  23  24  25 0
 3-21G
 ****
 27  28  30  31  32  35  37  42  43  44  45  46  47 0
 3-21G
 ****
 48  49 0
 3-21G
 ****


