%nproc=1
%NoSave
%Mem=1900MB
#P OB98/GEN NMR

erre ene a

0 1
  C      623.969     353.638     886.262
  O      622.934     352.683     886.412
  H      623.760     354.483     886.921
  H      624.015     353.993     885.230
  H      624.932     353.199     886.553
  P      622.946     351.387     885.471
  C      621.312     352.556     883.834
  O      621.571     351.413     884.642
  C      620.124     352.295     882.892
  O      620.569     351.385     881.839
  C      618.912     351.637     883.577
  O      617.738     352.077     882.877
  C      619.174     350.175     883.313
  O      618.033     349.389     883.576
  C      619.690     350.233     881.874
  N      620.383     349.013     881.479
  C      619.752     348.237     880.500
  O      618.670     348.586     880.037
  N      620.358     347.071     880.099
  C      621.453     346.684     880.669
  N      621.986     345.507     880.239
  C      622.118     347.440     881.738
  C      621.542     348.594     882.095
  O      623.239     350.096     886.148
  O      624.041     351.734     884.353
  H      617.773     349.464     884.534
  H      624.862     351.233     884.533
  H      623.026     347.065     882.204
  H      621.951     349.227     882.875
  H      618.863     350.410     881.166
  H      619.964     349.794     883.982
  H      618.839     351.888     884.641
  H      619.849     353.247     882.407
  H      621.484     345.011     879.503
  H      622.211     352.760     883.252
  H      622.828     345.097     880.623
  H      621.088     353.425     884.471
  P      616.989     353.470     883.207
  C      614.895     352.335     884.204
  O      615.410     353.219     883.212
  O      617.438     354.609     882.336
  O      617.331     353.770     884.742
  H      617.367     354.736     884.870
  H      613.833     352.257     884.096
  H      615.127     352.716     885.177
  H      615.338     351.368     884.085

 6  7  8  9  10  11  12  13  14  15  16  26  30  31  32  33  35 0
 6-311+G(2d,p)
 ****
 37  38 0
 6-311+G(2d,p)
 ****
 1  2  3  4  5  17  18  19  20  21  22  23  24  25 0
 3-21G
 ****
 27  28  29  34  36  39  40  41  42  43  44  45  46 0
 3-21G
 ****


