%nproc=1
%NoSave
%Mem=1900MB
#P OB98/GEN NMR

erre ene a

0 1
  C       61.003      57.936     -18.244
  O       59.949      58.872     -18.147
  H       61.919      58.471     -18.509
  H       60.788      57.205     -19.027
  H       61.160      57.426     -17.291
  P       58.524      58.375     -17.607
  C       57.379      60.132     -19.104
  O       57.503      59.596     -17.792
  C       55.953      60.625     -19.330
  O       55.010      59.584     -18.987
  C       55.570      61.820     -18.467
  O       56.150      63.016     -18.947
  C       54.055      61.758     -18.550
  O       53.577      62.363     -19.757
  C       53.793      60.235     -18.562
  N       53.360      59.743     -17.254
  C       52.473      58.672     -17.265
  O       52.063      58.138     -18.293
  N       52.016      58.267     -16.039
  C       52.245      58.905     -14.854
  O       51.623      58.659     -13.826
  C       53.237      59.989     -14.896
  C       53.732      60.362     -16.078
  O       58.529      57.750     -16.252
  O       58.041      57.334     -18.727
  H       58.187      56.425     -18.403
  H       52.601      62.385     -19.676
  H       51.338      57.517     -16.042
  H       53.501      60.474     -13.965
  H       54.440      61.183     -16.140
  H       53.023      59.985     -19.302
  H       53.585      62.274     -17.711
  H       55.876      61.640     -17.430
  H       55.831      60.857     -20.395
  H       57.612      59.345     -19.829
  H       58.097      60.950     -19.224
  P       57.405      63.664     -18.195
  C       56.901      66.183     -18.151
  O       57.637      65.139     -18.779
  O       58.629      62.811     -18.147
  O       56.862      63.954     -16.715
  H       57.497      63.588     -16.070
  H       57.134      67.116     -18.620
  H       57.162      66.230     -17.114
  H       55.853      65.988     -18.246

 6  7  8  9  10  11  12  13  14  15  16  27  31  32  33  34  35 0
 6-311+G(2d,p)
 ****
 36  37 0
 6-311+G(2d,p)
 ****
 1  2  3  4  5  17  18  19  20  21  22  23  24  25 0
 3-21G
 ****
 26  28  29  30  38  39  40  41  42  43  44  45 0
 3-21G
 ****


