%nproc=1
%NoSave
%Mem=1900MB
#P OB98/GEN NMR

erre ene a

0 1
  C       40.465    -115.507    -476.378
  O       40.864    -115.479    -477.739
  P       40.774    -114.067    -478.502
  C       38.181    -113.863    -478.553
  O       39.379    -114.087    -479.292
  C       37.093    -113.299    -479.464
  O       37.468    -111.991    -479.928
  C       36.849    -114.126    -480.715
  O       36.078    -115.272    -480.412
  C       36.132    -113.115    -481.603
  O       34.719    -113.111    -481.346
  C       36.773    -111.775    -481.177
  N       37.662    -111.234    -482.193
  C       37.037    -110.756    -483.355
  O       35.814    -110.827    -483.474
  N       37.824    -110.245    -484.360
  C       39.112    -110.223    -484.219
  N       39.841    -109.707    -485.248
  C       39.808    -110.735    -483.022
  C       39.028    -111.229    -482.061
  O       41.864    -114.211    -479.662
  O       41.016    -112.874    -477.637
  H       34.319    -112.593    -482.075
  H       42.206    -113.337    -479.929
  H       40.886    -110.697    -482.955
  H       39.454    -111.626    -481.145
  H       35.998    -111.026    -480.971
  H       36.257    -113.342    -482.667
  H       37.800    -114.415    -481.175
  H       36.172    -113.203    -478.878
  H       39.336    -109.368    -486.055
  H       38.381    -113.140    -477.753
  H       40.846    -109.621    -485.225
  H       37.862    -114.806    -478.103
  P       36.675    -116.700    -480.832
  C       35.964    -116.473    -483.288
  O       35.773    -117.172    -482.072
  O       36.142    -117.645    -479.653
  O       38.151    -116.795    -481.013
  H       36.528    -118.539    -479.742
  H       35.412    -116.989    -484.076
  H       37.027    -116.451    -483.554
  H       35.578    -115.453    -483.196
  H       40.574    -116.500    -475.995
  H       39.441    -115.205    -476.300
  H       41.079    -114.837    -475.813

 3  4  5  6  7  8  9  10  11  12  13  21  23  27  28  29  30  32 0
 6-311+G(2d,p)
 ****
 34  35 0
 6-311+G(2d,p)
 ****
 1  2  14  15  16  17  18  19  20  22  24  25  26 0
 3-21G
 ****
 31  33  36  37  38  39  40  41  42  43  44  45  46 0
 3-21G
 ****


