%nproc=1
%NoSave
%Mem=1900MB
#P OB98/GEN NMR

erre ene a

0 1
  C      221.597     256.075    -194.973
  O      221.494     255.467    -193.702
  H      220.979     256.976    -194.979
  H      221.229     255.397    -195.746
  H      222.630     256.357    -195.187
  P      222.434     254.213    -193.368
  C      222.428     254.257    -190.791
  O      221.938     253.618    -191.964
  C      221.315     254.348    -189.748
  O      220.795     253.032    -189.464
  C      221.774     254.902    -188.406
  O      221.961     256.302    -188.456
  C      220.647     254.431    -187.504
  O      219.520     255.311    -187.582
  C      220.306     253.050    -188.106
  N      220.876     251.953    -187.324
  C      220.085     251.457    -186.294
  O      218.962     251.883    -186.034
  N      220.657     250.481    -185.521
  C      221.958     250.072    -185.592
  O      222.494     249.385    -184.729
  C      222.725     250.586    -186.736
  C      222.163     251.498    -187.530
  O      223.902     254.461    -193.469
  O      221.957     253.098    -194.415
  H      222.601     253.051    -195.148
  H      218.768     254.817    -187.195
  H      220.105     250.145    -184.744
  H      223.740     250.229    -186.868
  H      222.721     251.917    -188.362
  H      219.218     252.913    -188.157
  H      220.962     254.385    -186.461
  H      222.705     254.407    -188.100
  H      220.502     254.956    -190.164
  H      222.764     255.266    -191.053
  H      223.279     253.686    -190.403
  P      223.065     257.004    -187.533
  C      222.854     258.892    -189.264
  O      223.113     258.563    -187.903
  O      224.394     256.327    -187.503
  O      222.402     257.011    -186.073
  H      223.046     256.648    -185.434
  H      222.913     259.953    -189.392
  H      221.875     258.554    -189.533
  H      223.580     258.417    -189.890

 6  7  8  9  10  11  12  13  14  15  16  27  31  32  33  34  35 0
 6-311+G(2d,p)
 ****
 36  37 0
 6-311+G(2d,p)
 ****
 1  2  3  4  5  17  18  19  20  21  22  23  24  25 0
 3-21G
 ****
 26  28  29  30  38  39  40  41  42  43  44  45 0
 3-21G
 ****


