%nproc=1
%NoSave
%Mem=1900MB
#P OB98/GEN NMR

erre ene a

0 1
  C     -150.428     889.192      46.488
  O     -150.292     889.189      47.895
  H     -150.860     890.140      46.150
  H     -149.440     889.076      46.042
  H     -151.066     888.357      46.168
  P     -151.631     889.458      48.737
  C     -151.565     891.590      50.213
  O     -151.178     890.233      50.073
  C     -150.508     892.363      50.991
  O     -150.396     891.852      52.338
  C     -149.097     892.275      50.416
  O     -148.921     893.144      49.302
  C     -148.273     892.721      51.613
  O     -148.278     894.166      51.703
  C     -149.042     892.121      52.791
  N     -145.360     890.050      55.717
  C     -145.662     891.343      55.419
  N     -146.638     891.815      54.623
  C     -147.377     890.810      54.132
  C     -147.203     889.452      54.350
  C     -146.129     889.079      55.175
  N     -145.824     887.766      55.471
  N     -148.160     888.712      53.682
  C     -148.911     889.610      53.075
  N     -148.472     890.890      53.305
  O     -152.036     888.005      49.275
  O     -152.748     890.095      47.977
  H     -149.175     894.422      52.004
  H     -153.011     887.930      49.287
  H     -145.013     892.089      55.883
  H     -149.772     889.384      52.460
  H     -149.128     892.830      53.626
  H     -147.224     892.408      51.559
  H     -148.839     891.230      50.160
  H     -150.828     893.413      51.053
  H     -152.514     891.651      50.751
  H     -145.181     887.575      56.215
  H     -146.411     887.039      55.061
  H     -151.700     892.025      49.218
  P     -148.741     892.464      47.855
  C     -147.161     894.324      46.954
  O     -148.430     893.678      46.847
  O     -150.226     892.033      47.471
  O     -147.795     891.309      47.805
  H     -150.208     891.290      46.835
  H     -147.096     895.106      46.226
  H     -146.382     893.611      46.782
  H     -147.054     894.740      47.934

 6  7  8  9  10  11  12  13  14  15  25  28  32  33  34  35 0
 6-311+G(2d,p)
 ****
 36  39  40 0
 6-311+G(2d,p)
 ****
 1  2  3  4  5  16  17  18  19  20  21  22  23  24 0
 3-21G
 ****
 26  27  29  30  31  37  38  41  42  43  44  45  46  47  48 0
 3-21G
 ****


