%nproc=1
%NoSave
%Mem=1900MB
#P OB98/GEN NMR

erre ene a

0 1
  C      141.080    -209.467    -212.150
  O      140.817    -209.402    -213.549
  P      139.397    -209.664    -214.228
  C      139.983    -208.678    -216.596
  O      139.606    -209.798    -215.806
  C      141.482    -208.377    -216.448
  O      142.231    -209.606    -216.702
  C      141.974    -207.333    -217.455
  O      142.877    -206.386    -216.897
  C      142.487    -208.184    -218.604
  O      143.386    -207.497    -219.460
  C      143.054    -209.398    -217.870
  N      145.713    -212.238    -221.177
  C      145.989    -210.977    -220.689
  N      147.111    -210.380    -221.146
  N      145.224    -210.346    -219.835
  C      144.098    -211.021    -219.518
  C      143.705    -212.268    -219.948
  C      144.584    -212.979    -220.853
  O      144.399    -214.105    -221.301
  N      142.499    -212.628    -219.402
  C      142.155    -211.596    -218.659
  N      143.097    -210.595    -218.692
  O      138.282    -208.785    -213.769
  O      139.037    -211.173    -213.787
  H      142.979    -206.639    -219.693
  H      138.060    -211.209    -213.709
  H      146.351    -212.686    -221.816
  H      141.247    -211.524    -218.071
  H      144.081    -209.231    -217.531
  H      141.623    -208.475    -219.212
  H      147.674    -210.754    -221.890
  H      141.143    -206.714    -217.812
  H      147.189    -209.378    -220.960
  H      141.679    -208.068    -215.418
  H      139.395    -207.834    -216.217
  H      139.710    -208.829    -217.641
  P      142.633    -204.834    -216.592
  C      144.467    -204.202    -214.913
  O      144.044    -204.152    -216.262
  O      141.883    -204.802    -215.177
  O      141.826    -204.115    -217.623
  H      141.002    -204.395    -215.283
  H      145.282    -203.488    -214.775
  H      144.828    -205.206    -214.676
  H      143.647    -203.936    -214.239
  H      142.112    -209.249    -211.971
  H      140.856    -210.449    -211.790
  H      140.470    -208.752    -211.639

 3  4  5  6  7  8  9  10  11  12  23  26  30  31 0
 6-311+G(2d,p)
 ****
 33  35  36  37  38 0
 6-311+G(2d,p)
 ****
 1  2  13  14  15  16  17  18  19  20  21  22  24  25 0
 3-21G
 ****
 27  28  29  32  34  39  40  41  42  43  44  45  46  47  48  49 0
 3-21G
 ****


