%nproc=1
%NoSave
%Mem=1900MB
#P OB98/GEN NMR

erre ene a

0 1
  C       10.462      67.368    -223.778
  O        9.187      66.955    -224.229
  H       10.478      68.459    -223.721
  H       11.234      67.041    -224.480
  H       10.662      66.959    -222.783
  P        8.968      65.375    -224.405
  C        7.001      65.660    -226.071
  O        8.318      65.173    -225.860
  C        6.630      65.565    -227.547
  O        7.261      66.624    -228.302
  C        7.031      64.256    -228.216
  O        6.075      63.240    -227.967
  C        7.078      64.672    -229.679
  O        5.761      64.693    -230.265
  C        7.661      66.090    -229.592
  N       11.545      64.979    -232.619
  C       10.188      64.842    -232.824
  N        9.813      64.274    -233.992
  N        9.280      65.215    -231.962
  C        9.806      65.735    -230.827
  C       11.130      65.939    -230.512
  C       12.121      65.550    -231.490
  O       13.335      65.703    -231.395
  N       11.262      66.508    -229.273
  C       10.026      66.615    -228.824
  N        9.107      66.143    -229.725
  O        7.751      65.053    -223.414
  O       10.158      64.527    -224.106
  H        5.423      63.783    -230.325
  H        7.848      64.143    -223.075
  H       12.194      64.689    -233.328
  H        9.747      67.021    -227.862
  H        7.248      66.754    -230.361
  H        7.674      63.980    -230.276
  H       10.441      63.682    -234.519
  H        8.032      63.945    -227.893
  H        8.819      64.149    -234.141
  H        5.545      65.717    -227.624
  H        6.953      66.707    -225.754
  H        6.299      65.072    -225.468
  P        6.622      61.761    -227.661
  C        4.176      60.903    -227.887
  O        5.537      60.745    -228.264
  O        6.422      61.614    -226.081
  O        8.034      61.521    -228.075
  H        6.962      60.873    -225.743
  H        3.583      60.154    -228.370
  H        3.835      61.873    -228.182
  H        4.086      60.800    -226.826

 6  7  8  9  10  11  12  13  14  15  26  29  33  34 0
 6-311+G(2d,p)
 ****
 36  38  39  40  41 0
 6-311+G(2d,p)
 ****
 1  2  3  4  5  16  17  18  19  20  21  22  23  24  25 0
 3-21G
 ****
 27  28  30  31  32  35  37  42  43  44  45  46  47 0
 3-21G
 ****
 48  49 0
 3-21G
 ****


