%nproc=1
%NoSave
%Mem=1900MB
#P OB98/GEN NMR

erre ene a

0 1
  C     -484.830     355.757    -174.637
  O     -483.655     355.261    -175.239
  H     -484.844     356.847    -174.753
  H     -484.840     355.526    -173.570
  H     -485.720     355.344    -175.123
  P     -483.350     353.684    -175.188
  C     -484.373     353.360    -177.523
  O     -484.455     353.005    -176.145
  C     -483.993     352.155    -178.386
  O     -484.964     351.087    -178.180
  C     -483.942     352.458    -179.889
  O     -482.742     351.915    -180.452
  C     -485.147     351.710    -180.445
  O     -485.010     351.385    -181.825
  C     -485.217     350.517    -179.481
  N     -486.500     349.833    -179.549
  C     -486.471     348.510    -180.003
  O     -485.400     347.975    -180.308
  N     -487.657     347.830    -180.142
  C     -488.776     348.445    -179.909
  N     -489.920     347.725    -180.100
  C     -488.854     349.852    -179.457
  C     -487.691     350.479    -179.297
  O     -483.270     353.112    -173.811
  O     -481.995     353.500    -176.024
  H     -484.996     352.220    -182.348
  H     -481.566     352.656    -175.748
  H     -489.817     350.313    -179.281
  H     -487.647     351.510    -178.973
  H     -484.420     349.793    -179.700
  H     -486.044     352.335    -180.334
  H     -483.992     353.523    -180.117
  H     -483.028     351.763    -178.025
  H     -489.823     346.771    -180.416
  H     -483.630     354.161    -177.633
  H     -490.849     348.105    -179.968
  H     -485.352     353.730    -177.839
  P     -481.622     352.983    -180.899
  C     -480.261     352.917    -178.687
  O     -481.057     353.695    -179.571
  O     -482.482     354.137    -181.622
  O     -480.595     352.413    -181.817
  H     -482.308     354.123    -182.583
  H     -479.959     353.519    -177.855
  H     -479.394     352.564    -179.205
  H     -480.831     352.082    -178.335

 6  7  8  9  10  11  12  13  14  15  16  26  30  31  32  33  35 0
 6-311+G(2d,p)
 ****
 37  38 0
 6-311+G(2d,p)
 ****
 1  2  3  4  5  17  18  19  20  21  22  23  24  25 0
 3-21G
 ****
 27  28  29  34  36  39  40  41  42  43  44  45  46 0
 3-21G
 ****


