%nproc=1
%NoSave
%Mem=1900MB
#P OB98/GEN NMR

erre ene a

0 1
  C      224.307     152.850      63.443
  O      223.552     152.238      64.471
  H      225.292     152.377      63.402
  H      224.434     153.915      63.654
  H      223.811     152.717      62.478
  P      222.061     152.786      64.682
  C      221.601     152.062      67.146
  O      221.381     151.816      65.764
  C      221.258     150.817      67.972
  O      222.343     149.854      67.839
  C      221.092     151.095      69.476
  O      220.168     150.128      70.004
  C      222.489     150.804      69.999
  O      222.489     150.680      71.402
  C      222.812     149.560      69.175
  N      226.197     145.820      68.334
  C      224.853     145.864      68.202
  N      224.021     146.899      68.432
  C      224.710     147.985      68.821
  C      226.080     148.096      68.993
  C      226.842     146.942      68.734
  N      228.209     146.892      68.876
  N      226.420     149.372      69.406
  C      225.272     150.018      69.480
  N      224.215     149.219      69.145
  O      221.329     152.400      63.312
  O      221.949     154.242      64.986
  H      223.363     150.374      71.725
  H      221.347     153.161      62.702
  H      224.383     144.940      67.868
  H      225.151     151.053      69.780
  H      222.264     148.680      69.533
  H      223.174     151.623      69.756
  H      220.730     152.103      69.694
  H      220.362     150.345      67.552
  H      220.967     152.900      67.453
  H      222.651     152.328      67.305
  H      228.678     146.021      68.685
  H      228.700     147.717      69.191
  P      218.774     150.635      70.626
  C      219.068     149.490      72.961
  O      218.313     149.603      71.762
  O      217.742     150.308      69.441
  O      218.715     152.083      70.989
  H      216.991     150.927      69.480
  H      218.617     148.759      73.599
  H      219.088     150.436      73.461
  H      220.068     149.190      72.726

 6  7  8  9  10  11  12  13  14  15  25  28  32  33  34  35 0
 6-311+G(2d,p)
 ****
 36  37  40 0
 6-311+G(2d,p)
 ****
 1  2  3  4  5  16  17  18  19  20  21  22  23  24 0
 3-21G
 ****
 26  27  29  30  31  38  39 41  42  43  44  45  46  47  48 0
 3-21G
 ****


