%nproc=1
%NoSave
%Mem=1900MB
#P OB98/GEN NMR

erre ene a

0 1
  C     -218.325    -794.257    1076.434
  O     -217.150    -794.501    1075.704
  P     -216.333    -795.887    1075.926
  C     -214.333    -794.860    1074.632
  O     -214.765    -795.553    1075.814
  C     -213.514    -793.630    1074.977
  O     -214.336    -792.644    1075.685
  C     -212.343    -793.919    1075.916
  O     -211.291    -794.569    1075.234
  C     -212.005    -792.492    1076.376
  O     -211.228    -791.774    1075.402
  C     -213.423    -791.859    1076.504
  N     -213.889    -791.775    1077.876
  C     -213.752    -790.542    1078.490
  O     -213.181    -789.615    1077.908
  N     -214.244    -790.361    1079.784
  C     -214.733    -791.411    1080.418
  N     -215.263    -791.184    1081.660
  C     -214.733    -792.783    1079.873
  C     -214.317    -792.896    1078.590
  O     -216.771    -797.057    1075.103
  O     -216.516    -796.197    1077.502
  H     -216.805    -797.127    1077.599
  H     -210.480    -792.380    1075.150
  H     -215.061    -793.617    1080.479
  H     -214.292    -793.835    1078.102
  H     -213.423    -790.834    1076.075
  H     -211.454    -792.484    1077.326
  H     -212.662    -794.508    1076.766
  H     -213.168    -793.162    1074.029
  H     -215.240    -790.233    1082.018
  H     -215.212    -794.565    1074.056
  H     -215.931    -791.831    1082.094
  H     -213.746    -795.546    1073.986
  P     -210.384    -795.576    1076.100
  C     -208.414    -795.754    1074.463
  O     -208.868    -795.327    1075.727
  O     -210.718    -797.018    1075.468
  O     -210.700    -795.561    1077.599
  H     -210.770    -797.705    1076.154
  H     -207.483    -795.206    1074.202
  H     -209.163    -795.514    1073.679
  H     -208.199    -796.824    1074.448
  H     -218.724    -793.303    1076.159
  H     -218.102    -794.263    1077.481
  H     -219.044    -795.020    1076.218

 3  4  5  6  7  8  9  10  11  12  13  24  27  28  29  30  32 0
 6-311+G(2d,p)
 ****
 34  35 0
 6-311+G(2d,p)
 ****
 1  2  14  15  16  17  18  19  20  21  22  23  25  26 0
 3-21G
 ****
 31  33  36  37  38  39  40  41  42  43  44  45  46 0
 3-21G
 ****


