%nproc=1
%NoSave
%Mem=1900MB
#P OB98/GEN NMR

erre ene a

0 1
  C      -30.101     247.354    -263.284
  O      -31.407     247.533    -262.772
  H      -29.717     246.389    -262.942
  H      -29.449     248.144    -262.902
  H      -30.103     247.367    -264.377
  P      -32.310     248.670    -263.450
  C      -34.390     247.118    -263.505
  O      -33.833     248.344    -263.052
  C      -35.070     246.383    -262.349
  O      -34.067     245.581    -261.655
  C      -35.727     247.310    -261.314
  O      -36.934     246.694    -260.840
  C      -34.719     247.313    -260.179
  O      -35.310     247.653    -258.930
  C      -34.204     245.879    -260.253
  N      -32.063     246.562    -255.765
  C      -33.389     246.615    -256.144
  N      -34.286     246.963    -255.197
  N      -33.806     246.354    -257.355
  C      -32.807     245.999    -258.201
  C      -31.459     245.913    -257.952
  C      -31.008     246.222    -256.610
  O      -29.845     246.215    -256.219
  N      -30.768     245.582    -259.091
  C      -31.697     245.487    -260.028
  N      -32.950     245.733    -259.538
  O      -32.238     248.294    -265.006
  O      -31.871     250.073    -263.195
  H      -34.611     247.625    -258.244
  H      -31.532     248.811    -265.437
  H      -31.793     246.789    -254.823
  H      -31.514     245.266    -261.071
  H      -34.907     245.159    -259.814
  H      -33.919     248.032    -260.390
  H      -34.046     247.151    -254.236
  H      -35.949     248.313    -261.693
  H      -35.268     246.966    -255.452
  H      -35.807     245.683    -262.765
  H      -33.591     246.486    -263.909
  H      -35.112     247.322    -264.303
  P      -37.967     247.598    -260.013
  C      -39.981     247.646    -261.661
  O      -39.459     247.176    -260.428
  O      -37.796     249.042    -260.680
  O      -37.696     247.636    -258.546
  H      -37.912     249.736    -260.002
  H      -40.978     247.279    -261.789
  H      -39.367     247.297    -262.465
  H      -39.992     248.716    -261.659

 6  7  8  9  10  11  12  13  14  15  26  29  33  34 0
 6-311+G(2d,p)
 ****
 36  38  39  40  41 0
 6-311+G(2d,p)
 ****
 1  2  3  4  5  16  17  18  19  20  21  22  23  24  25 0
 3-21G
 ****
 27  28  30  31  32  35  37  42  43  44  45  46  47 0
 3-21G
 ****
 48  49 0
 3-21G
 ****


