%nproc=1
%NoSave
%Mem=1900MB
#P OB98/GEN NMR

erre ene a

0 1
  C      -30.829     238.017      43.727
  O      -30.016     239.117      44.096
  P      -28.474     239.088      43.643
  C      -27.777     238.426      46.055
  O      -27.607     239.329      44.971
  C      -27.936     239.172      47.383
  O      -26.701     239.864      47.685
  C      -29.070     240.200      47.387
  O      -29.672     240.179      48.682
  C      -28.347     241.522      47.202
  O      -29.107     242.613      47.717
  C      -27.025     241.246      47.934
  N      -25.955     242.136      47.494
  C      -25.986     243.448      47.974
  O      -26.929     243.829      48.668
  N      -24.979     244.310      47.616
  C      -24.080     243.926      46.764
  N      -23.103     244.815      46.441
  C      -24.083     242.589      46.138
  C      -25.025     241.747      46.560
  O      -28.313     240.460      42.839
  O      -28.092     237.899      42.821
  H      -29.153     242.518      48.694
  H      -27.659     240.367      42.121
  H      -23.331     242.329      45.405
  H      -25.090     240.738      46.173
  H      -27.153     241.366      49.020
  H      -28.166     241.700      46.135
  H      -29.826     240.002      46.623
  H      -28.094     238.429      48.174
  H      -23.130     245.729      46.872
  H      -26.889     237.787      46.129
  H      -22.361     244.602      45.787
  H      -28.643     237.786      45.864
  P      -31.269     240.033      48.759
  C      -31.332     241.921      50.498
  O      -31.665     240.577      50.214
  O      -31.433     238.448      48.954
  O      -32.079     240.521      47.606
  H      -32.379     238.214      48.952
  H      -31.776     242.198      51.457
  H      -31.722     242.585      49.722
  H      -30.244     242.028      50.572
  H      -31.823     238.170      44.092
  H      -30.428     237.119      44.149
  H      -30.850     237.931      42.661

 3  4  5  6  7  8  9  10  11  12  13  21  23  27  28  29  30  32 0
 6-311+G(2d,p)
 ****
 34  35 0
 6-311+G(2d,p)
 ****
 1  2  14  15  16  17  18  19  20  22  24  25  26 0
 3-21G
 ****
 31  33  36  37  38  39  40  41  42  43  44  45  46 0
 3-21G
 ****


