%nproc=1
%NoSave
%Mem=1900MB
#P OB98/GEN NMR

erre ene a

0 1
  C     -958.317    -225.819     160.260
  O     -959.492    -225.653     159.486
  H     -958.205    -224.944     160.907
  H     -957.453    -225.890     159.594
  H     -958.380    -226.712     160.888
  P     -960.058    -226.907     158.656
  C     -958.657    -226.624     156.501
  O     -958.862    -227.381     157.696
  C     -957.863    -227.444     155.476
  O     -958.720    -228.528     154.979
  C     -957.413    -226.626     154.238
  O     -956.153    -227.190     153.799
  C     -958.516    -226.942     153.265
  O     -958.177    -226.560     151.947
  C     -958.718    -228.434     153.538
  N     -959.949    -228.977     152.979
  C     -959.900    -230.252     152.450
  O     -958.875    -230.952     152.437
  N     -961.057    -230.721     151.889
  C     -962.230    -230.037     151.817
  O     -963.264    -230.519     151.331
  C     -962.224    -228.680     152.373
  C     -961.112    -228.210     152.914
  O     -961.378    -226.701     157.985
  O     -960.141    -228.079     159.750
  H     -961.048    -228.156     160.089
  H     -957.328    -226.976     151.685
  H     -961.034    -231.651     151.512
  H     -963.143    -228.084     152.304
  H     -961.054    -227.207     153.347
  H     -957.871    -229.020     153.184
  H     -959.419    -226.368     153.521
  H     -957.264    -225.567     154.456
  H     -957.012    -227.919     155.974
  H     -958.095    -225.720     156.766
  H     -959.639    -226.341     156.078
  P     -954.744    -226.515     154.101
  C     -954.887    -225.072     151.963
  O     -954.629    -225.104     153.366
  O     -953.572    -227.402     153.815
  O     -954.782    -226.128     155.676
  H     -953.894    -226.262     156.045
  H     -954.775    -224.071     151.603
  H     -955.885    -225.409     151.776
  H     -954.194    -225.712     151.458

 6  7  8  9  10  11  12  13  14  15  16  27  31  32  33  34  35 0
 6-311+G(2d,p)
 ****
 36  37 0
 6-311+G(2d,p)
 ****
 1  2  3  4  5  17  18  19  20  21  22  23  24  25 0
 3-21G
 ****
 26  28  29  30  38  39  40  41  42  43  44  45 0
 3-21G
 ****


