%nproc=1
%NoSave
%Mem=1900MB
#P OB98/GEN NMR

erre ene a

0 1
  C      186.477     227.346     494.080
  O      187.339     226.339     494.584
  P      186.925     224.791     494.556
  C      188.601     223.729     492.914
  O      188.287     223.983     494.278
  C      190.004     223.143     492.763
  O      190.990     224.207     492.855
  C      190.373     222.080     493.816
  O      191.220     221.135     493.158
  C      191.156     222.887     494.835
  O      191.971     222.074     495.672
  C      191.915     223.854     493.911
  N      192.403     225.026     494.631
  C      193.610     224.881     495.329
  O      194.167     223.782     495.377
  N      194.126     225.967     495.993
  C      193.444     227.066     496.046
  N      194.009     228.109     496.719
  C      192.111     227.220     495.439
  C      191.660     226.179     494.740
  O      185.793     224.448     493.648
  O      186.635     224.449     496.094
  H      192.511     222.661     496.242
  H      185.749     224.802     496.365
  H      191.552     228.142     495.558
  H      190.691     226.201     494.256
  H      192.770     223.351     493.445
  H      190.462     223.440     495.480
  H      189.501     221.580     494.253
  H      190.086     222.712     491.758
  H      194.931     227.963     497.112
  H      188.558     224.684     492.375
  H      193.601     229.029     496.754
  H      187.850     223.063     492.475
  P      190.976     219.558     493.291
  C      190.954     218.852     490.824
  O      191.696     218.867     492.033
  O      189.551     219.156     493.500
  O      191.898     219.113     494.526
  H      191.621     218.231     494.837
  H      191.632     218.621     489.999
  H      190.486     219.825     490.643
  H      190.182     218.080     490.880
  H      186.942     228.303     494.194
  H      185.555     227.331     494.623
  H      186.284     227.164     493.043

 3  4  5  6  7  8  9  10  11  12  13  23  27  28  29  30  32 0
 6-311+G(2d,p)
 ****
 34  35 0
 6-311+G(2d,p)
 ****
 1  2  14  15  16  17  18  19  20  21  22  24  25  26 0
 3-21G
 ****
 31  33  36  37  38  39  40  41  42  43  44  45  46 0
 3-21G
 ****


