%nproc=1
%NoSave
%Mem=1900MB
#P OB98/GEN NMR

erre ene a

0 1
  C     -152.663    -752.488      10.744
  O     -153.798    -753.301      10.459
  P     -154.679    -753.796      11.727
  C     -156.912    -754.616      10.680
  O     -155.644    -754.967      11.214
  C     -157.359    -755.667       9.645
  O     -156.402    -755.776       8.566
  C     -157.492    -757.058      10.200
  O     -158.717    -757.250      10.899
  C     -157.482    -757.899       8.922
  O     -158.809    -757.910       8.347
  C     -156.511    -757.122       8.026
  N     -152.655    -758.427       5.005
  C     -153.866    -757.847       4.687
  N     -154.077    -757.537       3.382
  N     -154.800    -757.582       5.583
  C     -154.438    -757.914       6.837
  C     -153.279    -758.499       7.277
  C     -152.263    -758.822       6.287
  O     -151.181    -759.357       6.507
  N     -153.274    -758.671       8.636
  C     -154.427    -758.174       9.030
  N     -155.179    -757.704       7.967
  O     -155.679    -752.563      11.970
  O     -153.854    -754.101      12.935
  H     -158.827    -758.637       7.683
  H     -155.948    -752.537      12.908
  H     -151.980    -758.606       4.287
  H     -154.761    -758.107      10.059
  H     -156.878    -757.019       7.000
  H     -157.208    -758.957       9.096
  H     -153.360    -757.652       2.661
  H     -156.632    -757.335      10.826
  H     -154.940    -757.073       3.146
  H     -158.315    -755.320       9.217
  H     -156.842    -753.637      10.177
  H     -157.631    -754.529      11.483
  P     -158.694    -758.202      12.196
  C     -159.906    -756.677      13.924
  O     -159.995    -757.790      13.060
  O     -157.464    -757.628      13.054
  O     -158.537    -759.647      11.880
  H     -157.070    -758.354      13.584
  H     -159.376    -755.850      13.444
  H     -159.364    -756.969      14.834
  H     -160.911    -756.359      14.177
  H     -152.170    -752.230       9.830
  H     -151.987    -753.028      11.374
  H     -152.980    -751.596      11.243

 3  4  5  6  7  8  9  10  11  12  23  26  30  31  33  0
 6-311+G(2d,p)
 ****
 35  36  37  38 0
 6-311+G(2d,p)
 ****
 1  2  13  14  15  16  17  18  19  20  21  22  24  25  27  28  29 0
 3-21G
 ****
 32  34  39  40  41  42  43  44  45  46  47  48  49 0
 3-21G
 ****


