%nproc=1
%NoSave
%Mem=1900MB
#P OB98/GEN NMR

erre ene a

0 1
  C     -698.952    -126.353    -459.528
  O     -699.599    -125.204    -460.039
  P     -698.801    -124.290    -461.088
  C     -698.982    -122.087    -459.713
  O     -698.132    -123.102    -460.239
  C     -698.141    -121.014    -459.010
  O     -697.662    -121.487    -457.740
  C     -696.896    -120.598    -459.776
  O     -697.177    -119.651    -460.803
  C     -696.076    -119.941    -458.668
  O     -696.548    -118.603    -458.432
  C     -696.393    -120.846    -457.466
  N     -692.596    -122.260    -454.435
  C     -693.552    -121.273    -454.253
  N     -693.438    -120.518    -453.142
  N     -694.529    -121.052    -455.097
  C     -694.514    -121.873    -456.170
  C     -693.625    -122.888    -456.451
  C     -692.541    -123.128    -455.527
  O     -691.642    -123.942    -455.655
  N     -693.938    -123.512    -457.635
  C     -695.006    -122.877    -458.066
  N     -695.376    -121.853    -457.240
  O     -699.961    -123.547    -461.902
  O     -697.868    -125.048    -461.984
  H     -696.167    -118.325    -457.568
  H     -699.604    -123.188    -462.732
  H     -691.864    -122.399    -453.761
  H     -695.545    -123.129    -458.977
  H     -696.508    -120.266    -456.546
  H     -695.011    -119.870    -458.918
  H     -692.673    -120.603    -452.488
  H     -696.352    -121.462    -460.172
  H     -694.085    -119.746    -453.020
  H     -698.790    -120.144    -458.826
  H     -699.681    -122.521    -459.012
  H     -699.548    -121.629    -460.539
  P     -696.148    -119.588    -462.031
  C     -695.797    -117.015    -461.925
  O     -695.232    -118.305    -461.760
  O     -697.085    -119.138    -463.258
  O     -695.435    -120.869    -462.303
  H     -696.706    -119.458    -464.104
  H     -695.135    -116.278    -461.460
  H     -696.778    -116.951    -461.470
  H     -695.872    -116.776    -462.988
  H     -699.605    -126.856    -458.846
  H     -698.058    -126.061    -459.017
  H     -698.703    -127.011    -460.335

 3  4  5  6  7  8  9  10  11  12  23  26  30  31 0
 6-311+G(2d,p)
 ****
 33  35  36  37  38 0
 6-311+G(2d,p)
 ****
 1  2  13  14  15  16  17  18  19  20  21  22  24  25 0
 3-21G
 ****
 27  28  29  32  34  39  40  41  42  43  44  45  46  47  48  49 0
 3-21G
 ****


