%nproc=1
%NoSave
%Mem=1900MB
#P OB98/GEN NMR

erre ene a

0 1
  C      715.126     378.913     232.776
  O      715.889     378.957     233.966
  H      714.487     378.026     232.807
  H      715.786     378.840     231.908
  H      714.490     379.797     232.686
  P      716.800     380.244     234.248
  C      718.546     378.396     234.697
  O      718.122     379.725     234.992
  C      719.755     378.037     235.564
  O      720.903     378.820     235.169
  C      719.556     378.318     237.049
  O      718.741     377.333     237.651
  C      720.995     378.339     237.536
  O      721.484     377.005     237.735
  C      721.719     379.021     236.349
  N      721.974     380.441     236.580
  C      722.839     380.754     237.620
  O      723.354     379.905     238.346
  N      723.076     382.088     237.820
  C      722.456     383.117     237.170
  O      722.634     384.298     237.455
  C      721.526     382.730     236.106
  C      721.336     381.429     235.858
  O      716.115     381.392     234.913
  O      717.344     380.649     232.796
  H      720.995     376.641     238.497
  H      716.867     381.436     232.481
  H      723.695     382.336     238.580
  H      721.029     383.515     235.557
  H      720.648     381.125     235.073
  H      722.676     378.526     236.152
  H      721.109     378.869     238.480
  H      719.120     379.318     237.191
  H      719.997     376.979     235.395
  H      718.827     378.343     233.642
  H      717.718     377.707     234.886
  P      717.216     377.666     238.007
  C      717.427     376.116     240.056
  O      716.650     376.466     238.908
  O      716.357     378.048     236.851
  O      717.331     378.878     239.051
  H      716.868     379.659     238.690
  H      716.953     375.309     240.575
  H      717.503     376.962     240.707
  H      718.406     375.815     239.746

 6  7  8  9  10  11  12  13  14  15  16  26  31  32  33  34  35 0
 6-311+G(2d,p)
 ****
 36  37 0
 6-311+G(2d,p)
 ****
 1  2  3  4  5  17  18  19  20  21  22  23  24  25 0
 3-21G
 ****
 27  28  29  30  38  39  40  41  42  43  44  45 0
 3-21G
 ****


