%nproc=1
%NoSave
%Mem=1900MB
#P OB98/GEN NMR

erre ene a

0 1
  C     -706.626    -216.865    -238.028
  O     -707.390    -215.680    -238.129
  H     -706.033    -217.012    -238.936
  H     -705.946    -216.775    -237.176
  H     -707.282    -217.726    -237.868
  P     -708.432    -215.595    -239.347
  C     -710.776    -215.239    -238.271
  O     -709.812    -216.165    -238.758
  C     -712.142    -215.580    -238.858
  O     -712.134    -215.385    -240.291
  C     -712.560    -217.029    -238.639
  O     -713.114    -217.248    -237.356
  C     -713.604    -217.188    -239.729
  O     -714.833    -216.558    -239.322
  C     -712.964    -216.413    -240.888
  N     -712.945    -219.408    -245.043
  C     -713.923    -218.677    -244.460
  N     -713.839    -217.889    -243.374
  C     -712.593    -217.890    -242.876
  C     -711.496    -218.584    -243.357
  C     -711.706    -219.381    -244.496
  N     -710.722    -220.152    -245.068
  N     -710.390    -218.352    -242.566
  C     -710.810    -217.522    -241.632
  N     -712.143    -217.241    -241.757
  O     -707.956    -216.758    -240.338
  O     -708.546    -214.265    -240.016
  H     -715.434    -216.581    -240.087
  H     -708.377    -216.653    -241.212
  H     -714.894    -218.733    -244.942
  H     -710.195    -217.111    -240.844
  H     -713.710    -215.913    -241.523
  H     -713.842    -218.238    -239.941
  H     -711.731    -217.720    -238.838
  H     -712.880    -214.889    -238.431
  H     -710.485    -214.228    -238.578
  H     -711.006    -220.802    -245.788
  H     -709.842    -220.255    -244.588
  H     -710.809    -215.289    -237.181
  P     -712.562    -218.507    -236.516
  C     -710.977    -217.335    -234.823
  O     -711.091    -218.108    -236.013
  O     -712.286    -219.599    -237.650
  O     -713.499    -219.008    -235.464
  H     -712.436    -220.502    -237.310
  H     -709.944    -217.149    -234.616
  H     -711.414    -217.871    -234.006
  H     -711.488    -216.404    -234.952

 6  7  8  9  10  11  12  13  14  15  25  28  32  33  34  35 0
 6-311+G(2d,p)
 ****
 36  39  40 0
 6-311+G(2d,p)
 ****
 1  2  3  4  5  16  17  18  19  20  21  22  23  24 0
 3-21G
 ****
 26  27  29  30  31  37  38  41  42  43  44  45  46  47 0
 3-21G
 ****
 48 0
 3-21G
 ****


