%nproc=1
%NoSave
%Mem=1900MB
#P OB98/GEN NMR

erre ene a

0 1
  C       42.016     108.936     -39.105
  O       41.319     107.687     -39.033
  P       41.196     106.712     -40.302
  C       41.984     104.597     -39.078
  O       40.931     105.199     -39.825
  C       41.616     103.211     -38.528
  O       40.666     103.320     -37.433
  C       40.996     102.251     -39.552
  O       41.398     100.938     -39.156
  C       39.509     102.449     -39.315
  O       38.708     101.390     -39.821
  C       39.486     102.581     -37.796
  N       34.517     102.024     -36.688
  C       35.480     101.121     -36.967
  N       36.786     101.342     -37.215
  C       37.081     102.648     -37.111
  C       36.206     103.684     -36.823
  C       34.861     103.331     -36.617
  N       33.865     104.251     -36.378
  N       36.864     104.898     -36.833
  C       38.112     104.598     -37.133
  N       38.295     103.251     -37.307
  O       42.309     106.849     -41.290
  O       39.808     107.129     -40.984
  H       37.831     101.442     -39.400
  H       39.938     107.209     -41.949
  H       35.158     100.084     -37.004
  H       38.915     105.312     -37.259
  H       39.544     101.600     -37.309
  H       39.186     103.374     -39.807
  H       41.296     102.459     -40.582
  H       42.528     102.773     -38.104
  H       42.242     105.259     -38.245
  H       32.917     103.911     -36.336
  H       34.078     105.235     -36.448
  H       42.866     104.511     -39.722
  P       41.936      99.865     -40.217
  C       43.905      99.429     -38.644
  O       42.866      98.845     -39.408
  O       42.564     100.451     -41.438
  O       40.650      98.983     -40.585
  H       40.806      98.516     -41.427
  H       44.719      99.736     -39.305
  H       44.282      98.689     -37.932
  H       43.540     100.298     -38.089
  H       41.976     109.422     -38.153
  H       41.556     109.559     -39.843
  H       43.037     108.760     -39.373

 3  4  5  6  7  8  9  10  11  12  22  25  29  30  31  32 0
 6-311+G(2d,p)
 ****
 33  36  37 0
 6-311+G(2d,p)
 ****
 1  2  13  14  15  16  17  18  19  20  21  23  24  26 0
 3-21G
 ****
 27  28  34  35  38  39  40  41  42  43  44  45  46  47  48 0
 3-21G
 ****


