%nproc=1
%NoSave
%Mem=1900MB
#P OB98/GEN NMR

erre ene a

0 1
  C      241.004      28.221     -23.149
  O      240.697      29.458     -23.799
  P      239.442      29.449     -24.807
  C      237.525      30.237     -23.235
  O      238.411      30.567     -24.296
  C      236.173      29.783     -23.781
  O      235.288      29.393     -22.715
  C      235.418      30.857     -24.550
  O      235.903      30.993     -25.877
  C      234.007      30.284     -24.549
  O      233.871      29.316     -25.606
  C      233.930      29.596     -23.177
  N      229.375      30.978     -21.437
  C      229.706      30.153     -22.494
  N      228.675      29.595     -23.167
  N      230.934      29.897     -22.859
  C      231.863      30.498     -22.078
  C      231.661      31.336     -21.006
  C      230.295      31.637     -20.632
  O      229.947      32.386     -19.725
  N      232.849      31.745     -20.458
  C      233.768      31.133     -21.176
  N      233.219      30.376     -22.183
  O      238.704      28.074     -24.448
  O      239.822      29.522     -26.247
  H      234.394      28.533     -25.345
  H      238.210      27.749     -25.223
  H      228.412      31.146     -21.204
  H      234.836      31.201     -21.010
  H      233.458      28.609     -23.242
  H      233.240      31.046     -24.717
  H      227.709      29.692     -22.895
  H      235.431      31.811     -24.008
  H      228.900      28.959     -23.922
  H      236.343      28.912     -24.428
  H      237.381      31.106     -22.588
  H      237.982      29.455     -22.621
  P      236.176      32.483     -26.409
  C      237.487      33.383     -24.360
  O      237.536      32.948     -25.704
  O      235.043      33.342     -25.675
  O      236.118      32.630     -27.892
  H      234.807      34.120     -26.214
  H      236.850      32.732     -23.756
  H      237.110      34.408     -24.318
  H      238.499      33.363     -23.947
  H      241.852      28.355     -22.510
  H      241.226      27.477     -23.885
  H      240.164      27.906     -22.566

 3  4  5  6  7  8  9  10  11  12  23  26  30  31  33  0
 6-311+G(2d,p)
 ****
 35  36  37  38 0
 6-311+G(2d,p)
 ****
 1  2  13  14  15  16  17  18  19  20  21  22  24  25  27  28  29 0
 3-21G
 ****
 32  34  39  40  41  42  43  44  45  46  47  48  49 0
 3-21G
 ****


