%nproc=1
%NoSave
%Mem=1900MB
#P OB98/GEN NMR

erre ene a

0 1
  C     -280.013    -897.550     874.551
  O     -280.482    -896.610     873.588
  P     -279.735    -895.250     873.201
  C     -278.558    -896.260     871.082
  O     -278.431    -895.620     872.349
  C     -277.813    -895.500     869.956
  O     -278.219    -894.120     869.959
  C     -276.313    -895.530     870.175
  O     -275.546    -896.650     869.788
  C     -275.820    -894.210     869.624
  O     -275.365    -894.320     868.274
  C     -277.067    -893.310     869.701
  N     -275.461    -888.590     870.869
  C     -275.303    -889.290     869.693
  N     -274.588    -888.700     868.717
  N     -275.798    -890.490     869.501
  C     -276.408    -891.010     870.591
  C     -276.607    -890.420     871.817
  C     -276.126    -889.070     872.006
  O     -276.231    -888.400     873.025
  N     -277.251    -891.260     872.694
  C     -277.422    -892.370     871.991
  N     -276.929    -892.260     870.699
  O     -279.562    -894.270     874.315
  O     -280.729    -894.580     872.100
  H     -274.662    -894.990     868.255
  H     -280.639    -893.610     872.221
  H     -275.089    -887.650     870.960
  H     -277.912    -893.270     872.367
  H     -277.231    -892.800     868.748
  H     -274.962    -893.830     870.206
  H     -274.084    -887.840     868.844
  H     -276.154    -895.460     871.279
  H     -274.280    -889.290     867.939
  H     -278.115    -895.910     868.975
  H     -279.625    -896.320     870.860
  H     -278.187    -897.290     871.147
  P     -275.198    -897.940     870.697
  C     -276.212    -899.420     868.865
  O     -276.173    -899.120     870.248
  O     -275.740    -897.540     872.149
  O     -273.740    -898.290     870.751
  H     -275.347    -898.140     872.826
  H     -277.115    -900.000     868.663
  H     -275.337    -899.990     868.591
  H     -276.253    -898.490     868.277
  H     -280.700    -898.368     874.615
  H     -279.935    -897.074     875.506
  H     -279.052    -897.915     874.255

 3  4  5  6  7  8  9  10  11  12  23  26  30  31 0
 6-311+G(2d,p)
 ****
 33  35  36  37  38 0
 6-311+G(2d,p)
 ****
 1  2  13  14  15  16  17  18  19  20  21  22  24  25 0
 3-21G
 ****
 27  28  29  32  34  39  40  41  42  43  44  45  46  47  48  49 0
 3-21G
 ****


