%nproc=1
%NoSave
%Mem=1900MB
#P OB98/GEN NMR

erre ene a

0 1
  C     -892.418     188.427     383.790
  O     -892.358     188.551     382.383
  H     -891.668     189.090     384.224
  H     -892.188     187.402     384.089
  H     -893.398     188.717     384.166
  P     -893.428     187.753     381.490
  C     -893.768     189.949     380.206
  O     -893.558     188.554     380.106
  C     -894.658     190.452     379.060
  O     -893.868     190.483     377.842
  C     -895.888     189.557     378.801
  O     -896.988     190.394     378.448
  C     -895.468     188.730     377.596
  O     -896.588     188.292     376.829
  C     -894.558     189.711     376.847
  N     -893.878     187.692     372.262
  C     -894.948     188.400     372.771
  N     -895.998     188.592     371.951
  N     -894.978     188.893     373.995
  C     -893.848     188.644     374.695
  C     -892.728     187.945     374.300
  C     -892.718     187.396     372.962
  O     -891.798     186.744     372.465
  N     -891.798     187.880     375.317
  C     -892.358     188.534     376.315
  N     -893.608     189.005     375.995
  O     -894.728     187.458     382.162
  O     -892.658     186.416     381.070
  H     -896.928     189.072     376.345
  H     -892.938     185.665     381.638
  H     -893.918     187.328     371.326
  H     -891.918     188.694     377.293
  H     -895.118     190.388     376.197
  H     -894.908     187.849     377.931
  H     -896.038     188.261     370.999
  H     -896.148     188.936     379.661
  H     -896.788     189.134     372.297
  H     -894.958     191.477     379.275
  H     -892.788     190.451     380.153
  H     -894.238     190.183     381.171
  P     -898.028     190.819     379.594
  C     -899.068     192.537     377.971
  O     -899.308     191.473     378.892
  O     -897.458     191.605     380.733
  O     -898.598     189.400     380.092
  H     -898.838     189.477     381.037
  H     -900.000     192.883     377.575
  H     -898.450     192.184     377.172
  H     -898.574     193.341     378.476

 6  7  8  9  10  11  12  13  14  15  26  29  33  34 0
 6-311+G(2d,p)
 ****
 36  38  39  40  41 0
 6-311+G(2d,p)
 ****
 1  2  3  4  5  16  17  18  19  20  21  22  23  24  25 0
 3-21G
 ****
 27  28  30  31  32  35  37  42  43  44  45  46  47 0
 3-21G
 ****
 48  49 0
 3-21G
 ****


