%nproc=1
%NoSave
%Mem=1900MB
#P OB98/GEN NMR

erre ene a

0 1
  C       -8.914     -20.746     197.091
  O       -8.666     -19.934     195.961
  H       -9.596     -20.214     197.759
  H       -7.982     -20.940     197.628
  H       -9.379     -21.690     196.796
  P       -7.798     -20.532     194.754
  C       -8.082     -22.405     193.005
  O       -8.620     -21.775     194.162
  C       -8.365     -23.904     193.048
  O       -7.665     -24.515     194.154
  C       -9.837     -24.247     193.250
  O      -10.568     -24.051     192.054
  C       -9.726     -25.691     193.712
  O       -9.516     -26.575     192.601
  C       -8.463     -25.633     194.605
  N       -8.780     -25.514     196.029
  C       -9.427     -26.603     196.607
  O       -9.732     -27.617     195.980
  N       -9.757     -26.467     197.931
  C       -9.588     -25.340     198.685
  O      -10.092     -25.188     199.791
  C       -8.832     -24.253     198.043
  C       -8.483     -24.382     196.762
  O       -6.365     -20.812     195.063
  O       -7.944     -19.428     193.602
  H       -7.138     -18.876     193.580
  H      -10.328     -26.537     192.057
  H      -10.271     -27.233     198.346
  H       -8.620     -23.366     198.629
  H       -7.952     -23.579     196.261
  H       -7.854     -26.536     194.465
  H      -10.626     -26.034     194.227
  H      -10.257     -23.645     194.065
  H       -7.985     -24.352     192.119
  H       -6.998     -22.240     192.991
  H       -8.521     -21.951     192.110
  P      -12.162     -23.908     192.070
  C      -13.867     -22.372     193.208
  O      -12.561     -22.925     193.273
  O      -12.913     -25.200     192.052
  O      -12.495     -23.036     190.766
  H      -13.161     -23.509     190.230
  H      -14.027     -21.736     194.053
  H      -14.589     -23.161     193.213
  H      -13.969     -21.802     192.308

 6  7  8  9  10  11  12  13  14  15  16  27  31  32  33  34  35 0
 6-311+G(2d,p)
 ****
 36  37 0
 6-311+G(2d,p)
 ****
 1  2  3  4  5  17  18  19  20  21  22  23  24  25 0
 3-21G
 ****
 26  28  29  30  38  39  40  41  42  43  44  45 0
 3-21G
 ****


