%nproc=1
%NoSave
%Mem=1900MB
#P OB98/GEN NMR

erre ene a

0 1
  C     -117.861     562.046    -153.048
  O     -119.207     561.669    -153.239
  H     -117.773     563.125    -153.198
  H     -117.215     561.541    -153.773
  H     -117.534     561.811    -152.030
  P     -119.640     560.155    -152.948
  C     -120.934     559.514    -155.083
  O     -121.023     559.908    -153.715
  C     -122.333     559.261    -155.640
  O     -122.986     558.203    -154.902
  C     -123.262     560.466    -155.550
  O     -122.940     561.423    -156.535
  C     -124.616     559.790    -155.714
  O     -124.882     559.496    -157.096
  C     -124.406     558.478    -154.917
  N     -124.944     558.548    -153.559
  C     -125.641     557.423    -153.120
  O     -125.814     556.422    -153.808
  N     -126.177     557.517    -151.858
  C     -126.165     558.620    -151.058
  O     -126.843     558.732    -150.043
  C     -125.357     559.750    -151.549
  C     -124.804     559.667    -152.761
  O     -119.626     559.743    -151.514
  O     -118.592     559.295    -153.811
  H     -117.899     558.949    -153.223
  H     -125.661     558.902    -157.106
  H     -126.731     556.726    -151.545
  H     -125.265     560.627    -150.912
  H     -124.225     560.499    -153.158
  H     -124.886     557.636    -155.428
  H     -125.440     560.407    -155.354
  H     -123.207     560.909    -154.547
  H     -122.230     558.929    -156.683
  H     -120.350     558.587    -155.140
  H     -120.425     560.297    -155.652
  P     -122.431     562.884    -156.134
  C     -124.179     564.017    -157.636
  O     -122.801     563.893    -157.332
  O     -121.005     562.962    -155.682
  O     -123.424     563.344    -154.960
  H     -122.899     563.623    -154.183
  H     -124.305     564.709    -158.442
  H     -124.704     564.374    -156.774
  H     -124.569     563.062    -157.921

 6  7  8  9  10  11  12  13  14  15  16  27  31  32  33  34  35 0
 6-311+G(2d,p)
 ****
 36  37 0
 6-311+G(2d,p)
 ****
 1  2  3  4  5  17  18  19  20  21  22  23  24  25 0
 3-21G
 ****
 26  28  29  30  38  39  40  41  42  43  44  45 0
 3-21G
 ****


