%nproc=1
%NoSave
%Mem=1900MB
#P OB98/GEN NMR

erre ene a

0 1
  C       35.929    -186.540     877.963
  O       37.206    -185.905     877.943
  P       38.219    -185.947     879.206
  C       38.979    -188.411     878.945
  O       38.274    -187.464     879.757
  C       40.445    -188.551     879.376
  O       40.516    -188.909     880.784
  C       41.229    -189.645     878.641
  O       41.632    -189.176     877.365
  C       42.367    -189.909     879.631
  O       43.389    -188.913     879.485
  C       41.651    -189.759     880.966
  N       42.247    -192.983     884.929
  C       42.766    -191.743     884.668
  N       42.561    -190.958     883.586
  C       41.694    -191.544     882.722
  C       41.077    -192.776     882.864
  C       41.392    -193.513     884.016
  N       40.859    -194.764     884.276
  N       40.281    -193.051     881.771
  C       40.401    -191.969     881.020
  N       41.228    -191.037     881.549
  O       37.930    -184.924     880.247
  O       39.679    -185.731     878.563
  H       43.662    -188.911     878.545
  H       40.254    -185.314     879.231
  H       43.436    -191.357     885.435
  H       39.889    -191.831     880.054
  H       42.296    -189.265     881.721
  H       42.830    -190.895     879.473
  H       40.599    -190.540     878.545
  H       40.927    -187.576     879.264
  H       38.942    -188.045     877.890
  H       41.157    -195.259     885.117
  H       40.265    -195.203     883.575
  H       38.455    -189.371     878.998
  P       41.789    -190.211     876.150
  C       39.530    -189.591     875.107
  O       40.324    -190.626     875.675
  O       42.733    -191.346     876.393
  O       42.293    -189.276     874.935
  H       42.856    -189.819     874.338
  H       39.104    -188.980     875.903
  H       38.724    -190.060     874.520
  H       40.117    -188.950     874.446
  H       35.437    -186.381     877.026
  H       35.337    -186.125     878.752
  H       36.055    -187.590     878.126

 3  4  5  6  7  8  9  10  11  12  22  25  29  30  31  32 0
 6-311+G(2d,p)
 ****
 33  36  37 0
 6-311+G(2d,p)
 ****
 1  2  13  14  15  16  17  18  19  20  21  23  24  26 0
 3-21G
 ****
 27  28  34  35  38  39  40  41  42  43  44  45  46  47  48 0
 3-21G
 ****


