%nproc=1
%NoSave
%Mem=1900MB
#P OB98/GEN NMR

erre ene a

0 1
  C      873.878    -511.248    -896.500
  O      873.704    -511.931    -895.280
  H      874.880    -511.483    -896.890
  H      873.804    -510.172    -896.350
  H      873.131    -511.573    -897.230
  P      872.257    -511.798    -894.580
  C      871.627    -514.189    -895.330
  O      871.280    -512.809    -895.350
  C      870.356    -515.044    -895.480
  O      869.609    -515.031    -894.210
  C      869.391    -514.562    -896.580
  O      868.772    -515.732    -897.170
  C      868.328    -513.820    -895.800
  O      867.092    -513.701    -896.500
  C      868.245    -514.696    -894.540
  N      864.246    -514.842    -891.490
  C      864.655    -515.709    -892.490
  N      863.863    -516.792    -892.690
  N      865.732    -515.546    -893.200
  C      866.432    -514.439    -892.850
  C      866.142    -513.490    -891.900
  C      864.931    -513.683    -891.120
  O      864.506    -512.933    -890.260
  N      867.095    -512.513    -891.870
  C      867.966    -512.846    -892.800
  N      867.612    -514.011    -893.430
  O      871.771    -510.352    -895.060
  O      872.252    -511.920    -893.080
  H      867.271    -513.214    -897.330
  H      872.007    -509.677    -894.390
  H      863.407    -515.008    -890.970
  H      868.859    -512.291    -893.070
  H      867.696    -515.625    -894.710
  H      868.677    -512.807    -895.540
  H      863.048    -517.019    -892.150
  H      869.850    -513.960    -897.360
  H      864.163    -517.467    -893.400
  H      870.655    -516.085    -895.650
  H      872.100    -514.432    -894.380
  H      872.312    -514.411    -896.140
  P      869.432    -516.316    -898.510
  C      870.164    -518.781    -898.160
  O      870.516    -517.401    -898.090
  O      870.328    -515.088    -899.040
  O      868.431    -516.737    -899.540
  H      870.414    -515.134    -900.000
  H      870.995    -519.377    -897.847
  H      869.904    -519.032    -899.167
  H      869.329    -518.969    -897.519

 6  7  8  9  10  11  12  13  14  15  26  29  33  34 0
 6-311+G(2d,p)
 ****
 36  38  39  40  41 0
 6-311+G(2d,p)
 ****
 1  2  3  4  5  16  17  18  19  20  21  22  23  24  25 0
 3-21G
 ****
 27  28  30  31  32  35  37  42  43  44  45  46  47 0
 3-21G
 ****
 48  49 0
 3-21G
 ****


