%nproc=1
%NoSave
%Mem=1900MB
#P OB98/GEN NMR

erre ene a

0 1
  C       10.408     -27.007      45.705
  O       11.241     -26.304      44.805
  P       12.606     -26.940      44.252
  C       14.079     -25.262      45.528
  O       13.718     -26.625      45.367
  C       15.090     -25.084      46.662
  O       14.506     -25.547      47.911
  C       16.414     -25.835      46.462
  O       17.430     -25.023      47.057
  C       16.199     -27.098      47.275
  O       17.416     -27.751      47.606
  C       15.396     -26.545      48.460
  N       14.676     -27.596      49.171
  C       15.430     -28.411      50.020
  O       16.654     -28.278      50.083
  N       14.791     -29.392      50.734
  C       13.528     -29.608      50.536
  N       12.948     -30.591      51.276
  C       12.723     -28.855      49.557
  C       13.349     -27.863      48.926
  O       12.976     -26.537      42.865
  O       12.382     -28.515      44.421
  H       17.981     -27.118      48.102
  H       11.793     -28.859      43.703
  H       11.687     -29.107      49.386
  H       12.843     -27.254      48.192
  H       16.059     -26.036      49.172
  H       15.587     -27.805      46.701
  H       16.646     -26.043      45.415
  H       15.283     -24.010      46.775
  H       13.533     -31.074      51.947
  H       13.173     -24.699      45.773
  H       11.957     -30.783      51.261
  H       14.475     -24.866      44.587
  P       18.832     -24.769      46.321
  C       19.892     -26.081      48.248
  O       19.845     -25.892      46.845
  O       19.347     -23.369      46.405
  O       18.564     -25.201      44.800
  H       19.274     -24.846      44.231
  H       20.385     -27.033      48.463
  H       18.884     -26.097      48.674
  H       20.465     -25.270      48.707
  H        9.556     -26.406      45.945
  H       10.954     -27.226      46.599
  H       10.084     -27.921      45.252

 3  4  5  6  7  8  9  10  11  12  13  23  27  28  29  30  32 0
 6-311+G(2d,p)
 ****
 34  35 0
 6-311+G(2d,p)
 ****
 1  2  14  15  16  17  18  19  20  21  22  24  25  26 0
 3-21G
 ****
 31  33  36  37  38  39  40  41  42  43  44  45  46 0
 3-21G
 ****


