%nproc=1
%NoSave
%Mem=1900MB
#P OB98/GEN NMR

erre ene a

0 1
  C      331.103    -162.184     767.620
  O      330.701    -163.519     767.373
  H      330.416    -161.739     768.344
  H      331.060    -161.599     766.696
  H      332.115    -162.157     768.037
  P      331.599    -164.438     766.420
  C      330.818    -166.754     767.232
  O      331.874    -165.805     767.228
  C      331.063    -167.820     768.299
  O      331.974    -168.820     767.768
  C      331.669    -167.264     769.596
  O      331.097    -167.971     770.694
  C      333.144    -167.621     769.472
  O      333.781    -167.757     770.747
  C      333.086    -168.927     768.684
  N      337.631    -171.123     768.968
  C      336.585    -171.139     769.865
  N      336.763    -171.824     771.014
  N      335.431    -170.537     769.637
  C      335.373    -169.907     768.448
  C      336.351    -169.814     767.475
  C      337.615    -170.471     767.737
  O      338.590    -170.480     766.990
  N      335.929    -169.061     766.400
  C      334.705    -168.693     766.728
  N      334.324    -169.172     767.957
  O      332.830    -163.786     765.871
  O      330.596    -164.892     765.260
  H      333.785    -166.871     771.154
  H      330.733    -164.350     764.459
  H      338.489    -171.595     769.196
  H      334.048    -168.084     766.115
  H      332.911    -169.807     769.331
  H      333.662    -166.839     768.905
  H      337.616    -172.314     771.235
  H      331.523    -166.183     769.716
  H      335.993    -171.863     771.670
  H      330.109    -168.337     768.495
  H      330.771    -167.232     766.242
  H      329.868    -166.246     767.414
  P      330.918    -167.183     772.091
  C      328.368    -166.906     771.815
  O      329.625    -166.245     771.965
  O      332.148    -166.539     772.637
  O      330.383    -168.358     773.070
  H      330.690    -168.143     773.985
  H      327.588    -166.177     771.742
  H      328.191    -167.533     772.664
  H      328.383    -167.503     770.927

 6  7  8  9  10  11  12  13  14  15  26  29  33  34 0
 6-311+G(2d,p)
 ****
 36  38  39  40  41 0
 6-311+G(2d,p)
 ****
 1  2  3  4  5  16  17  18  19  20  21  22  23  24  25 0
 3-21G
 ****
 27  28  30  31  32  35  37  42  43  44  45  46  47 0
 3-21G
 ****
 48  49 0
 3-21G
 ****


