%nproc=1
%NoSave
%Mem=1900MB
#P OB98/GEN NMR

erre ene a

0 1
  C     -210.681     -26.383    -107.989
  O     -211.433     -27.256    -107.174
  H     -210.217     -26.967    -108.788
  H     -209.895     -25.900    -107.406
  H     -211.331     -25.627    -108.440
  P     -212.171     -26.660    -105.880
  C     -212.044     -27.024    -103.328
  O     -211.485     -27.342    -104.599
  C     -211.042     -27.356    -102.215
  O     -210.967     -28.797    -102.101
  C     -209.632     -26.822    -102.516
  O     -209.098     -26.036    -101.450
  C     -208.867     -28.074    -102.933
  O     -207.475     -28.005    -102.717
  C     -209.584     -29.191    -102.170
  N     -209.450     -30.508    -102.790
  C     -208.273     -31.213    -102.549
  O     -207.347     -30.820    -101.850
  N     -208.185     -32.441    -103.158
  C     -209.122     -33.005    -103.971
  O     -208.987     -34.109    -104.485
  C     -210.330     -32.200    -104.209
  C     -210.438     -31.009    -103.621
  O     -213.662     -26.728    -105.899
  O     -211.655     -25.146    -105.801
  H     -207.075     -28.779    -103.170
  H     -212.364     -24.543    -106.096
  H     -207.346     -32.966    -102.981
  H     -211.089     -32.614    -104.859
  H     -211.315     -30.387    -103.774
  H     -209.198     -29.266    -101.152
  H     -209.020     -28.223    -104.012
  H     -209.655     -26.119    -103.356
  H     -211.429     -26.968    -101.265
  H     -212.957     -27.616    -103.206
  H     -212.299     -25.959    -103.293
  P     -209.380     -24.481    -101.228
  C     -208.257     -22.266    -102.100
  O     -208.521     -23.652    -102.292
  O     -209.338     -24.005     -99.815
  O     -210.891     -24.288    -101.761
  H     -211.280     -23.572    -101.220
  H     -207.671     -21.898    -102.916
  H     -207.720     -22.129    -101.185
  H     -209.182     -21.730    -102.055

 6  7  8  9  10  11  12  13  14  15  16  26  31  32  33  34  35 0
 6-311+G(2d,p)
 ****
 36  37 0
 6-311+G(2d,p)
 ****
 1  2  3  4  5  17  18  19  20  21  22  23  24  25 0
 3-21G
 ****
 27  28  29  30  38  39  40  41  42  43  44  45 0
 3-21G
 ****


