%nproc=1
%NoSave
%Mem=1900MB
#P OB98/GEN NMR

erre ene a

0 1
  C     -263.574     -36.194      -1.779
  O     -264.162     -35.810      -0.553
  H     -263.970     -35.552      -2.571
  H     -263.824     -37.231      -2.013
  H     -262.489     -36.069      -1.740
  P     -263.747     -36.605       0.777
  C     -265.887     -38.063       0.891
  O     -264.492     -38.024       0.634
  C     -266.276     -39.412       1.489
  O     -266.051     -40.487       0.552
  C     -265.486     -39.815       2.730
  O     -265.843     -39.095       3.896
  C     -265.866     -41.283       2.816
  O     -267.201     -41.406       3.333
  C     -265.798     -41.692       1.327
  N     -264.508     -42.277       0.961
  C     -264.117     -43.422       1.665
  O     -264.831     -43.891       2.549
  N     -262.900     -43.994       1.374
  C     -262.134     -43.457       0.476
  N     -260.939     -44.061       0.233
  C     -262.498     -42.239      -0.273
  C     -263.685     -41.709       0.013
  O     -263.977     -35.888       2.069
  O     -262.220     -37.018       0.538
  H     -267.720     -40.670       2.961
  H     -261.910     -37.505       1.340
  H     -261.811     -41.814      -0.990
  H     -264.021     -40.810      -0.492
  H     -266.592     -42.409       1.083
  H     -265.210     -41.860       3.472
  H     -264.406     -39.747       2.544
  H     -267.355     -39.382       1.693
  H     -260.715     -44.892       0.763
  H     -266.414     -37.886      -0.053
  H     -260.246     -43.668      -0.392
  H     -266.159     -37.278       1.603
  P     -264.639     -38.565       4.823
  C     -264.395     -40.769       6.206
  O     -263.818     -39.863       5.276
  O     -265.387     -38.089       6.151
  O     -263.797     -37.487       4.215
  H     -265.522     -37.122       6.145
  H     -263.712     -41.572       6.393
  H     -265.305     -41.162       5.804
  H     -264.602     -40.256       7.122

 6  7  8  9  10  11  12  13  14  15  16  26  30  31  32  33  35 0
 6-311+G(2d,p)
 ****
 37  38 0
 6-311+G(2d,p)
 ****
 1  2  3  4  5  17  18  19  20  21  22  23  24  25 0
 3-21G
 ****
 27  28  29  34  36  39  40  41  42  43  44  45  46 0
 3-21G
 ****


