%nproc=1
%NoSave
%Mem=1900MB
#P OB98/GEN NMR

erre ene a

0 1
  C      -43.085     -75.260    -239.584
  O      -42.566     -74.379    -238.606
  P      -42.712     -74.725    -237.039
  C      -43.587     -72.319    -236.687
  O      -42.651     -73.318    -236.262
  C      -43.797     -71.299    -235.573
  O      -44.485     -71.892    -234.445
  C      -42.508     -70.742    -234.983
  O      -41.694     -69.957    -235.818
  C      -43.011     -70.097    -233.708
  O      -43.575     -68.812    -233.968
  C      -44.136     -71.082    -233.283
  N      -43.728     -71.929    -232.155
  C      -43.516     -71.276    -230.951
  O      -43.660     -70.059    -230.792
  N      -43.102     -72.065    -229.904
  C      -42.833     -73.400    -229.962
  O      -42.418     -74.033    -228.987
  C      -43.062     -74.034    -231.271
  C      -43.491     -73.289    -232.288
  O      -41.765     -75.770    -236.526
  O      -44.253     -75.133    -236.888
  H      -43.788     -68.407    -233.100
  H      -44.896     -74.436    -237.150
  H      -42.934     -71.598    -229.022
  H      -42.872     -75.112    -231.345
  H      -43.670     -73.740    -233.278
  H      -45.048     -70.548    -232.991
  H      -42.229     -69.963    -232.965
  H      -41.881     -71.595    -234.685
  H      -44.436     -70.502    -235.958
  H      -44.528     -72.805    -236.918
  H      -43.228     -71.841    -237.608
  P      -40.097     -70.193    -235.966
  C      -39.554     -67.657    -235.820
  O      -39.460     -68.866    -236.567
  O      -39.663     -71.502    -236.564
  O      -39.624     -70.124    -234.439
  H      -38.851     -70.709    -234.328
  H      -39.099     -66.850    -236.389
  H      -39.004     -67.753    -234.878
  H      -40.595     -67.399    -235.638
  H      -42.893     -74.863    -240.559
  H      -44.140     -75.367    -239.444
  H      -42.614     -76.216    -239.489

 3  4  5  6  7  8  9  10  11  12  13  23  28  29  30  31  32 0
 6-311+G(2d,p)
 ****
 33  34 0
 6-311+G(2d,p)
 ****
 1  2  14  15  16  17  18  19  20  21  22  24  25  26  27 0
 3-21G
 ****
 35  36  37  38  39  40  41  42  43  44  45 0
 3-21G
 ****


