%nproc=1
%NoSave
%Mem=1900MB
#P OB98/GEN NMR

erre ene a

0 1
  C       40.917      21.713     -14.059
  O       41.517      22.236     -12.891
  H       41.607      21.845     -14.896
  H       39.984      22.234     -14.287
  H       40.722      20.643     -13.934
  P       40.604      22.392     -11.579
  C       42.304      24.126     -10.699
  O       40.937      23.853     -10.996
  C       42.547      25.631     -10.570
  O       42.404      26.270     -11.855
  C       41.551      26.336      -9.662
  O       41.686      26.012      -8.295
  C       41.673      27.786     -10.107
  O       42.725      28.492      -9.456
  C       42.000      27.632     -11.612
  N       40.881      28.028     -12.458
  C       40.483      29.356     -12.354
  O       41.007      30.164     -11.588
  N       39.422      29.723     -13.134
  C       38.707      28.896     -13.950
  O       37.737      29.278     -14.594
  C       39.158      27.497     -13.999
  C       40.210      27.131     -13.262
  O       40.727      21.295     -10.565
  O       39.126      22.565     -12.163
  H       42.513      28.506      -8.502
  H       38.446      22.405     -11.465
  H       39.126      30.684     -13.080
  H       38.613      26.812     -14.633
  H       40.562      26.102     -13.280
  H       42.860      28.261     -11.878
  H       40.751      28.341      -9.918
  H       40.543      26.013      -9.948
  H       43.575      25.787     -10.226
  H       42.908      23.734     -11.524
  H       42.590      23.611      -9.776
  P       40.487      26.121      -7.245
  C       42.216      25.977      -5.312
  O       41.086      26.653      -5.852
  O       39.511      24.989      -7.219
  O       39.703      27.421      -7.795
  H       38.752      27.281      -7.627
  H       42.501      26.439      -4.390
  H       43.029      26.032      -6.005
  H       41.967      24.951      -5.135

 6  7  8  9  10  11  12  13  14  15  16  26  31  32  33  34  35 0
 6-311+G(2d,p)
 ****
 36  37 0
 6-311+G(2d,p)
 ****
 1  2  3  4  5  17  18  19  20  21  22  23  24  25 0
 3-21G
 ****
 27  28  29  30  38  39  40  41  42  43  44  45 0
 3-21G
 ****


