%nproc=1
%NoSave
%Mem=1900MB
#P OB98/GEN NMR

erre ene a

0 1
  C     -164.033     138.564    -957.695
  O     -163.231     138.058    -956.646
  H     -163.759     139.614    -957.871
  H     -165.086     138.528    -957.404
  H     -163.872     138.000    -958.608
  P     -163.348     136.485    -956.342
  C     -165.343     136.957    -954.705
  O     -164.853     136.258    -955.831
  C     -166.876     136.829    -954.613
  O     -167.225     135.417    -954.643
  C     -167.471     137.426    -953.327
  O     -168.744     138.007    -953.646
  C     -167.665     136.219    -952.431
  O     -168.655     136.451    -951.439
  C     -168.015     135.133    -953.473
  N     -167.765     133.786    -952.960
  C     -168.469     133.414    -951.800
  O     -169.235     134.214    -951.258
  N     -168.252     132.171    -951.272
  C     -167.373     131.381    -951.812
  N     -167.184     130.165    -951.225
  C     -166.575     131.758    -952.995
  C     -166.837     132.944    -953.531
  O     -162.465     136.338    -955.019
  O     -162.920     135.608    -957.479
  H     -168.683     135.671    -950.832
  H     -162.635     137.033    -954.362
  H     -165.834     131.059    -953.402
  H     -166.304     133.292    -954.409
  H     -169.078     135.208    -953.758
  H     -166.723     135.968    -951.929
  H     -166.816     138.196    -952.881
  H     -167.313     137.285    -955.504
  H     -167.737     129.960    -950.387
  H     -165.069     138.018    -954.763
  H     -166.483     129.497    -951.518
  H     -164.870     136.540    -953.810
  P     -168.868     139.579    -953.902
  C     -170.003     140.340    -951.697
  O     -168.816     140.338    -952.481
  O     -169.960     140.014    -954.807
  O     -167.431     139.947    -954.535
  H     -167.579     140.587    -955.253
  H     -169.828     140.875    -950.787
  H     -170.283     139.332    -951.471
  H     -170.791     140.815    -952.244

 6  7  8  9  10  11  12  13  14  15  16  26  30  31  32  33  35 0
 6-311+G(2d,p)
 ****
 37  38 0
 6-311+G(2d,p)
 ****
 1  2  3  4  5  17  18  19  20  21  22  23  24  25 0
 3-21G
 ****
 27  28  29  34  36  39  40  41  42  43  44  45  46 0
 3-21G
 ****


