%nproc=1
%NoSave
%Mem=1900MB
#P OB98/GEN NMR

erre ene a

0 1
  C       53.693      -0.364     -61.285
  O       54.844      -0.467     -62.103
  P       55.752      -1.784     -62.045
  C       57.484      -0.610     -60.498
  O       57.243      -1.309     -61.699
  C       58.980      -0.596     -60.154
  O       59.155       0.216     -58.968
  C       59.571      -1.961     -59.817
  O       60.994      -1.881     -59.932
  C       59.188      -2.115     -58.362
  O       59.993      -3.078     -57.689
  C       59.305      -0.664     -57.829
  N       58.272      -0.373     -56.818
  C       58.213      -1.220     -55.716
  O       59.021      -2.129     -55.527
  N       57.143      -1.044     -54.882
  C       56.131      -0.151     -55.077
  O       55.047      -0.212     -54.509
  C       56.372       0.866     -56.113
  C       57.404       0.696     -56.943
  O       55.838      -2.222     -63.581
  O       55.220      -2.877     -61.185
  H       59.804      -3.950     -58.109
  H       55.171      -2.908     -63.774
  H       57.024      -1.750     -54.166
  H       55.667       1.681     -56.201
  H       57.577       1.402     -57.751
  H       60.285      -0.484     -57.372
  H       58.146      -2.454     -58.300
  H       59.187      -2.782     -60.430
  H       59.536      -0.125     -60.974
  H       56.907      -1.069     -59.691
  H       57.130       0.424     -60.582
  P       61.736      -2.980     -60.833
  C       62.518      -4.187     -58.705
  O       62.910      -3.589     -59.925
  O       62.144      -2.539     -62.199
  O       60.673      -4.180     -60.887
  H       60.881      -4.769     -61.636
  H       63.235      -4.972     -58.451
  H       61.519      -4.626     -58.776
  H       62.526      -3.429     -57.916
  H       53.216       0.578     -61.458
  H       53.979      -0.436     -60.256
  H       53.014      -1.156     -61.523

 3  4  5  6  7  8  9  10  11  12  13  23  28  29  30  31  32 0
 6-311+G(2d,p)
 ****
 33  34 0
 6-311+G(2d,p)
 ****
 1  2  14  15  16  17  18  19  20  21  22  24  25  26  27 0
 3-21G
 ****
 35  36  37  38  39  40  41  42  43  44  45 0
 3-21G
 ****


