%nproc=1
%NoSave
%Mem=1900MB
#P OB98/GEN NMR

erre ene a

0 1
  C     -510.806       7.267    -380.592
  O     -511.322       5.948    -380.598
  P     -510.557       4.779    -379.819
  C     -512.505       3.413    -378.844
  O     -511.452       4.332    -378.564
  C     -513.575       3.483    -377.764
  O     -514.243       4.767    -377.784
  C     -514.692       2.454    -377.924
  O     -514.263       1.152    -377.594
  C     -515.761       3.040    -377.009
  O     -515.494       2.705    -375.638
  C     -515.569       4.559    -377.238
  N     -516.596       5.121    -378.102
  C     -517.796       5.488    -377.479
  O     -517.972       5.258    -376.282
  N     -518.764       6.104    -378.229
  C     -518.608       6.223    -379.511
  N     -519.573       6.893    -380.193
  C     -517.423       5.705    -380.236
  C     -516.458       5.190    -379.466
  O     -509.125       5.060    -379.501
  O     -510.682       3.518    -380.804
  H     -509.792       3.126    -380.924
  H     -515.631       1.743    -375.555
  H     -517.373       5.768    -381.311
  H     -515.547       4.806    -379.910
  H     -515.585       5.090    -376.282
  H     -516.762       2.668    -377.246
  H     -515.053       2.476    -378.960
  H     -513.088       3.367    -376.785
  H     -520.362       7.251    -379.669
  H     -512.083       2.405    -378.886
  H     -519.405       7.320    -381.103
  H     -512.936       3.642    -379.830
  P     -514.677      -0.024    -378.605
  C     -512.380      -1.214    -378.660
  O     -513.353      -0.483    -379.375
  O     -515.534       0.735    -379.729
  O     -515.465      -1.133    -377.979
  H     -516.262       0.161    -380.028
  H     -511.737      -1.737    -379.368
  H     -512.838      -1.951    -377.988
  H     -511.762      -0.522    -378.074
  H     -511.449       7.904    -381.162
  H     -509.827       7.269    -381.025
  H     -510.751       7.624    -379.585

 3  4  5  6  7  8  9  10  11  12  13  24  27  28  29  30  32 0
 6-311+G(2d,p)
 ****
 34  35 0
 6-311+G(2d,p)
 ****
 1  2  14  15  16  17  18  19  20  21  22  23  25  26 0
 3-21G
 ****
 31  33  36  37  38  39  40  41  42  43  44  45  46 0
 3-21G
 ****


