%nproc=1
%NoSave
%Mem=1900MB
#P OB98/GEN NMR

erre ene a

0 1
  C     -203.054     -10.931     -24.984
  O     -201.699     -10.874     -24.570
  P     -201.389     -10.273     -23.112
  C     -199.268     -11.659     -22.526
  O     -199.805     -10.397     -22.900
  C     -197.760     -11.680     -22.754
  O     -197.449     -11.411     -24.138
  C     -196.994     -10.630     -21.961
  O     -196.758     -11.029     -20.622
  C     -195.687     -10.575     -22.737
  O     -194.841     -11.676     -22.353
  C     -196.163     -10.745     -24.184
  N     -193.656      -7.106     -26.648
  C     -193.225      -8.352     -26.236
  N     -191.927      -8.643     -26.463
  N     -193.998      -9.233     -25.659
  C     -195.272      -8.801     -25.491
  C     -195.816      -7.591     -25.859
  C     -194.948      -6.620     -26.487
  O     -195.257      -5.482     -26.824
  N     -197.145      -7.521     -25.531
  C     -197.408      -8.683     -24.968
  N     -196.293      -9.477     -24.880
  O     -201.980     -11.382     -22.123
  O     -201.972      -8.924     -22.860
  H     -194.607     -11.535     -21.414
  H     -202.095     -11.005     -21.229
  H     -193.021      -6.459     -27.084
  H     -198.380      -8.985     -24.595
  H     -195.487     -11.381     -24.765
  H     -195.118      -9.659     -22.548
  H     -191.265      -7.983     -26.845
  H     -197.488      -9.651     -22.014
  H     -191.567      -9.523     -26.113
  H     -197.393     -12.685     -22.515
  H     -199.741     -12.442     -23.122
  H     -199.493     -11.847     -21.471
  P     -196.292      -9.883     -19.597
  C     -196.268     -11.116     -17.309
  O     -195.524     -10.653     -18.420
  O     -197.667      -9.422     -18.922
  O     -195.561      -8.748     -20.231
  H     -197.602      -8.501     -18.610
  H     -195.656     -11.831     -16.752
  H     -197.186     -11.616     -17.630
  H     -196.515     -10.277     -16.653
  H     -203.109     -11.350     -25.967
  H     -203.466      -9.943     -24.994
  H     -203.609     -11.543     -24.304

 3  4  5  6  7  8  9  10  11  12  23  26  30  31 0
 6-311+G(2d,p)
 ****
 33  35  36  37  38 0
 6-311+G(2d,p)
 ****
 1  2  13  14  15  16  17  18  19  20  21  22  24  25 0
 3-21G
 ****
 27  28  29  32  34  39  40  41  42  43  44  45  46  47  48  49 0
 3-21G
 ****


