%nproc=1
%NoSave
%Mem=1900MB
#P OB98/GEN NMR

erre ene a

0 1
  C      210.242      91.917     261.842
  O      210.213      93.197     262.495
  P      211.293      93.656     263.584
  C      213.841      94.139     263.499
  O      212.598      94.183     262.801
  C      214.743      95.300     263.074
  O      215.033      95.219     261.654
  C      214.143      96.692     263.250
  O      214.101      97.092     264.609
  C      215.073      97.527     262.376
  O      216.261      97.912     263.090
  C      215.435      96.545     261.243
  N      214.839      96.903     259.968
  C      215.529      97.829     259.183
  O      216.555      98.365     259.613
  N      215.039      98.137     257.935
  C      213.903      97.643     257.556
  N      213.468      97.974     256.302
  C      213.068      96.773     258.405
  C      213.594      96.442     259.586
  O      211.593      92.622     264.622
  O      210.690      94.978     264.254
  H      211.043      95.085     265.155
  H      216.694      98.606     262.559
  H      212.106      96.416     258.063
  H      213.053      95.791     260.270
  H      216.525      96.491     261.124
  H      214.591      98.453     262.028
  H      213.130      96.706     262.824
  H      215.687      95.218     263.628
  H      214.071      98.564     255.739
  H      214.341      93.194     263.260
  H      212.609      97.625     255.899
  H      213.646      94.166     264.578
  P      212.668      97.072     265.334
  C      211.312      95.369     266.752
  O      212.555      95.697     266.149
  O      211.642      96.881     264.122
  O      212.354      98.304     266.119
  H      210.843      97.421     264.277
  H      211.243      94.279     266.825
  H      210.472      95.742     266.165
  H      211.278      95.789     267.758
  H      209.420      91.846     261.160
  H      210.166      91.141     262.575
  H      211.161      91.811     261.305

 3  4  5  6  7  8  9  10  11  12  13  24  27  28  29  30  32 0
 6-311+G(2d,p)
 ****
 34  35 0
 6-311+G(2d,p)
 ****
 1  2  14  15  16  17  18  19  20  21  22  23  25  26 0
 3-21G
 ****
 31  33  36  37  38  39  40  41  42  43  44  45  46 0
 3-21G
 ****


