%nproc=1
%NoSave
%Mem=1900MB
#P OB98/GEN NMR

erre ene a

0 1
  C     -370.946    -339.810     191.964
  O     -370.390    -338.574     191.536
  P     -371.398    -337.327     191.363
  C     -371.452    -336.440     188.927
  O     -371.936    -337.411     189.860
  C     -370.037    -336.778     188.494
  O     -369.908    -338.206     188.300
  C     -369.621    -336.163     187.157
  O     -369.211    -334.800     187.312
  C     -368.450    -337.046     186.779
  O     -367.257    -336.604     187.465
  C     -368.889    -338.423     187.298
  N     -367.808    -341.161     183.165
  C     -366.978    -340.409     183.982
  N     -365.667    -340.412     183.652
  N     -367.395    -339.719     185.008
  C     -368.730    -339.840     185.233
  C     -369.663    -340.550     184.502
  C     -369.191    -341.262     183.331
  O     -369.891    -341.887     182.539
  N     -370.912    -340.441     185.041
  C     -370.735    -339.705     186.126
  N     -369.432    -339.287     186.269
  O     -370.414    -336.065     191.347
  O     -372.442    -337.210     192.433
  H     -367.450    -336.640     188.414
  H     -370.900    -335.267     191.646
  H     -367.437    -341.678     182.395
  H     -371.519    -339.452     186.837
  H     -368.060    -338.943     187.794
  H     -368.221    -337.009     185.702
  H     -365.267    -341.027     182.957
  H     -370.413    -336.262     186.414
  H     -365.030    -339.903     184.263
  H     -369.343    -336.475     189.292
  H     -371.451    -335.459     189.411
  H     -372.125    -336.403     188.067
  P     -369.563    -333.808     186.099
  C     -367.509    -333.354     184.586
  O     -368.576    -334.226     184.910
  O     -368.992    -332.404     186.616
  O     -371.015    -333.743     185.763
  H     -369.474    -331.663     186.193
  H     -367.089    -332.874     185.467
  H     -367.855    -332.595     183.884
  H     -366.720    -333.940     184.097
  H     -370.171    -340.544     192.036
  H     -371.680    -340.135     191.257
  H     -371.406    -339.682     192.922

 3  4  5  6  7  8  9  10  11  12  23  26  30  31  33  0
 6-311+G(2d,p)
 ****
 35  36  37  38 0
 6-311+G(2d,p)
 ****
 1  2  13  14  15  16  17  18  19  20  21  22  24  25  27  28  29 0
 3-21G
 ****
 32  34  39  40  41  42  43  44  45  46  47  48  49 0
 3-21G
 ****


