%nproc=1
%NoSave
%Mem=1900MB
#P OB98/GEN NMR

erre ene a

0 1
  C       93.174     371.911    -293.172
  O       94.181     372.146    -294.135
  H       93.096     370.834    -293.000
  H       92.209     372.282    -293.540
  H       93.427     372.403    -292.229
  P       94.486     373.679    -294.501
  C       92.618     373.746    -296.317
  O       94.005     373.884    -296.019
  C       92.221     374.736    -297.405
  O       92.443     376.083    -296.933
  C       93.036     374.618    -298.692
  O       92.587     373.544    -299.505
  C       92.806     375.989    -299.315
  O       91.568     376.036    -300.038
  C       92.735     376.906    -298.086
  N       95.101     381.351    -298.891
  C       93.841     380.937    -299.156
  N       93.282     379.737    -298.889
  C       94.164     378.927    -298.279
  C       95.484     379.209    -297.952
  C       95.953     380.494    -298.279
  N       97.243     380.907    -298.041
  N       96.084     378.112    -297.371
  C       95.146     377.181    -297.345
  N       93.968     377.635    -297.875
  O       96.088     373.714    -294.597
  O       93.964     374.682    -293.529
  H       91.425     376.972    -300.284
  H       96.461     374.003    -293.744
  H       93.197     381.667    -299.652
  H       95.274     376.175    -296.958
  H       91.929     377.644    -298.169
  H       93.604     376.244    -300.014
  H       94.103     374.507    -298.454
  H       91.148     374.618    -297.607
  H       92.036     373.950    -295.407
  H       92.428     372.717    -296.641
  H       97.520     381.833    -298.325
  H       97.912     380.236    -297.684
  P       93.547     373.030    -300.684
  C       92.569     374.359    -302.696
  O       92.709     373.105    -302.053
  O       93.672     371.462    -300.399
  O       94.882     373.699    -300.737
  H       94.515     371.260    -299.945
  H       91.989     374.240    -303.587
  H       93.536     374.740    -302.949
  H       92.076     375.044    -302.038

 6  7  8  9  10  11  12  13  14  15  25  28  32  33  34  35 0
 6-311+G(2d,p)
 ****
 36  37  40 0
 6-311+G(2d,p)
 ****
 1  2  3  4  5  16  17  18  19  20  21  22  23  24 0
 3-21G
 ****
 26  27  29  30  31  38  39 41  42  43  44  45  46  47  48 0
 3-21G
 ****


