%nproc=1
%NoSave
%Mem=1900MB
#P OB98/GEN NMR

erre ene a

0 1
  C     -623.441    -312.294     272.154
  O     -624.503    -312.268     271.223
  H     -623.350    -313.294     272.599
  H     -622.505    -312.056     271.638
  H     -623.615    -311.551     272.945
  P     -625.945    -312.701     271.770
  C     -626.839    -314.581     273.319
  O     -625.700    -313.950     272.752
  C     -626.594    -316.067     273.484
  O     -625.819    -316.324     274.683
  C     -627.846    -316.922     273.633
  O     -628.476    -317.164     272.382
  C     -627.266    -318.190     274.215
  O     -626.695    -318.996     273.171
  C     -626.146    -317.664     275.134
  N     -626.758    -320.359     279.465
  C     -626.377    -320.724     278.214
  N     -626.251    -319.956     277.114
  C     -626.542    -318.678     277.387
  C     -626.965    -318.145     278.604
  C     -627.071    -319.059     279.680
  N     -627.485    -318.671     280.939
  N     -627.169    -316.796     278.514
  C     -626.880    -316.495     277.259
  N     -626.518    -317.605     276.535
  O     -626.647    -313.360     270.489
  O     -626.771    -311.592     272.338
  H     -627.424    -319.243     272.566
  H     -627.598    -313.158     270.511
  H     -626.146    -321.769     278.095
  H     -626.932    -315.500     276.835
  H     -625.231    -318.261     275.042
  H     -627.995    -318.811     274.733
  H     -628.541    -316.472     274.362
  H     -625.992    -316.420     272.625
  H     -627.706    -314.432     272.660
  H     -627.350    -319.317     281.702
  H     -627.704    -317.690     281.095
  H     -627.051    -314.117     274.295
  P     -630.077    -317.375     272.383
  C     -631.638    -319.346     273.015
  O     -630.298    -318.880     272.917
  O     -630.426    -317.476     270.830
  O     -630.859    -316.299     273.077
  H     -631.353    -317.214     270.684
  H     -631.640    -320.352     273.380
  H     -632.098    -319.316     272.049
  H     -632.185    -318.721     273.690

 6  7  8  9  10  11  12  13  14  15  25  28  32  33  34  35 0
 6-311+G(2d,p)
 ****
 36  39  40 0
 6-311+G(2d,p)
 ****
 1  2  3  4  5  16  17  18  19  20  21  22  23  24 0
 3-21G
 ****
 26  27  29  30  31  37  38  41  42  43  44  45  46  47  48 0
 3-21G
 ****


