%nproc=1
%NoSave
%Mem=1900MB
#P OB98/GEN NMR

erre ene a

0 1
  C     -118.903     -19.057      16.497
  O     -117.831     -19.210      17.407
  H     -118.540     -18.535      15.609
  H     -119.696     -18.462      16.955
  H     -119.294     -20.035      16.199
  P     -118.129     -20.038      18.747
  C     -119.480     -19.598      20.919
  O     -119.145     -19.141      19.615
  C     -120.904     -19.182      21.288
  O     -120.897     -17.778      21.688
  C     -121.924     -19.329      20.144
  O     -123.180     -19.710      20.716
  C     -122.052     -17.906      19.623
  O     -123.269     -17.695      18.910
  C     -121.938     -17.126      20.933
  N     -123.985     -12.697      19.684
  C     -124.569     -13.935      19.881
  N     -125.908     -14.004      19.720
  N     -123.901     -15.009      20.207
  C     -122.576     -14.787      20.366
  C     -121.872     -13.615      20.197
  C     -122.621     -12.437      19.810
  O     -122.155     -11.320      19.602
  N     -120.529     -13.806      20.426
  C     -120.425     -15.089      20.735
  N     -121.637     -15.724      20.712
  O     -116.745     -19.920      19.547
  O     -118.540     -21.458      18.547
  H     -123.243     -18.249      18.100
  H     -116.179     -20.692      19.357
  H     -124.541     -11.905      19.423
  H     -119.502     -15.603      20.976
  H     -122.864     -17.161      21.522
  H     -121.218     -17.670      18.950
  H     -126.494     -13.209      19.519
  H     -121.634     -20.049      19.371
  H     -126.364     -14.892      19.902
  H     -121.219     -19.757      22.168
  H     -118.780     -19.160      21.640
  H     -119.389     -20.690      20.953
  P     -123.741     -21.178      20.394
  C     -125.438     -22.235      18.728
  O     -124.802     -21.056      19.196
  O     -124.674     -21.489      21.660
  O     -122.680     -22.214      20.220
  H     -124.720     -22.451      21.812
  H     -126.111     -21.986      17.934
  H     -125.984     -22.688      19.529
  H     -124.699     -22.920      18.368

 6  7  8  9  10  11  12  13  14  15  26  29  33  34 0
 6-311+G(2d,p)
 ****
 36  38  39  40  41 0
 6-311+G(2d,p)
 ****
 1  2  3  4  5  16  17  18  19  20  21  22  23  24  25 0
 3-21G
 ****
 27  28  30  31  32  35  37  42  43  44  45  46  47 0
 3-21G
 ****
 48  49 0
 3-21G
 ****


