%nproc=1
%NoSave
%Mem=1900MB
#P OB98/GEN NMR

erre ene a

0 1
  C      244.039    -145.223    -189.498
  O      245.313    -145.844    -189.461
  P      246.035    -146.146    -190.862
  C      244.956    -147.143    -193.044
  O      245.083    -147.178    -191.630
  C      244.123    -148.333    -193.532
  O      242.750    -148.175    -193.110
  C      244.070    -148.490    -195.042
  O      245.263    -149.061    -195.560
  C      242.827    -149.363    -195.206
  O      243.149    -150.741    -194.945
  C      241.909    -148.811    -194.094
  N      240.889    -147.896    -194.596
  C      239.850    -148.469    -195.321
  O      239.770    -149.675    -195.544
  N      238.905    -147.596    -195.802
  C      238.936    -146.232    -195.688
  O      238.089    -145.500    -196.175
  C      240.074    -145.690    -194.936
  C      240.982    -146.527    -194.435
  O      247.277    -147.029    -190.368
  O      246.398    -144.910    -191.616
  H      247.077    -147.498    -189.539
  H      243.751    -151.026    -195.664
  H      238.132    -147.991    -196.315
  H      240.138    -144.611    -194.834
  H      241.835    -146.138    -193.888
  H      241.405    -149.642    -193.577
  H      242.406    -149.310    -196.212
  H      243.892    -147.518    -195.516
  H      244.519    -149.242    -193.061
  H      245.953    -147.188    -193.493
  H      244.483    -146.197    -193.339
  P      245.753    -148.529    -196.999
  C      244.610    -148.742    -199.339
  O      244.894    -149.326    -198.086
  O      247.215    -149.172    -197.090
  O      245.729    -147.039    -197.124
  H      247.240    -150.095    -196.768
  H      244.351    -149.536    -200.047
  H      245.472    -148.190    -199.728
  H      243.757    -148.062    -199.238
  H      243.681    -145.084    -188.499
  H      243.355    -145.843    -190.039
  H      244.119    -144.273    -189.984

 3  4  5  6  7  8  9  10  11  12  13  24  28  29  30  31  32 0
 6-311+G(2d,p)
 ****
 33  34 0
 6-311+G(2d,p)
 ****
 1  2  14  15  16  17  18  19  20  21  22  23  25  26  27 0
 3-21G
 ****
 35  36  37  38  39  40  41  42  43  44  45 0
 3-21G
 ****


