%nproc=1
%NoSave
%Mem=1900MB
#P OB98/GEN NMR

erre ene a

0 1
  C      -93.793     198.274      75.150
  O      -93.304     199.600      75.203
  H      -93.841     197.962      74.104
  H      -94.798     198.231      75.577
  H      -93.125     197.599      75.692
  P      -92.980     200.190      76.663
  C      -90.626     201.249      76.194
  O      -92.012     201.442      76.413
  C      -90.342     201.046      74.705
  O      -90.735     202.242      73.990
  C      -88.871     200.774      74.389
  O      -88.804     199.827      73.319
  C      -88.352     202.121      73.920
  O      -87.201     201.988      73.089
  C      -89.595     202.710      73.240
  N      -89.558     204.171      73.184
  C      -88.409     204.749      72.635
  O      -87.483     204.038      72.247
  N      -88.318     206.118      72.578
  C      -89.260     206.847      73.091
  N      -89.100     208.196      73.023
  C      -90.464     206.279      73.728
  C      -90.552     204.950      73.730
  O      -92.008     199.066      77.258
  O      -94.188     200.466      77.493
  H      -86.876     202.891      72.875
  H      -91.360     198.732      76.615
  H      -91.214     206.929      74.156
  H      -91.407     204.451      74.170
  H      -89.690     202.328      72.215
  H      -88.071     202.732      74.787
  H      -88.305     200.401      75.241
  H      -90.983     200.236      74.338
  H      -88.252     208.545      72.596
  H      -90.270     200.379      76.754
  H      -89.742     208.856      73.435
  H      -90.097     202.132      76.564
  P      -88.416     198.307      73.641
  C      -89.695     197.602      71.517
  O      -88.515     197.447      72.291
  O      -89.088     197.702      74.827
  O      -86.827     198.389      73.876
  H      -86.601     197.781      74.607
  H      -89.637     196.979      70.649
  H      -89.793     198.624      71.216
  H      -90.545     197.320      72.102

 6  7  8  9  10  11  12  13  14  15  16  26  30  31  32  33  35 0
 6-311+G(2d,p)
 ****
 37  38 0
 6-311+G(2d,p)
 ****
 1  2  3  4  5  17  18  19  20  21  22  23  24  25 0
 3-21G
 ****
 27  28  29  34  36  39  40  41  42  43  44  45  46 0
 3-21G
 ****


