%nproc=1
%NoSave
%Mem=1900MB
#P OB98/GEN NMR

erre ene a

0 1
  C      -62.098     -72.824     -99.201
  O      -62.375     -73.318     -97.907
  H      -61.069     -72.458     -99.223
  H      -62.769     -71.993     -99.431
  H      -62.205     -73.608     -99.955
  P      -63.707     -74.176     -97.674
  C      -64.096     -72.880     -95.479
  O      -63.990     -74.156     -96.094
  C      -63.391     -72.870     -94.119
  O      -61.951     -72.905     -94.336
  C      -63.696     -71.628     -93.268
  O      -63.631     -72.026     -91.892
  C      -62.528     -70.725     -93.611
  O      -62.375     -69.694     -92.661
  C      -61.390     -71.746     -93.691
  N      -60.223     -71.229     -94.402
  C      -58.999     -71.350     -93.757
  O      -58.874     -71.833     -92.631
  N      -57.915     -70.856     -94.428
  C      -57.947     -70.208     -95.628
  O      -56.947     -69.756     -96.169
  C      -59.277     -70.070     -96.244
  C      -60.338     -70.581     -95.615
  O      -63.718     -75.535     -98.291
  O      -64.879     -73.250     -98.249
  H      -63.215     -69.196     -92.562
  H      -65.606     -73.804     -98.592
  H      -57.018     -70.946     -93.978
  H      -59.338     -69.553     -97.192
  H      -61.330     -70.495     -96.043
  H      -61.068     -72.046     -92.684
  H      -62.682     -70.250     -94.586
  H      -64.666     -71.181     -93.493
  H      -63.652     -73.790     -93.583
  H      -65.160     -72.657     -95.347
  H      -63.653     -72.122     -96.132
  P      -64.809     -71.697     -90.852
  C      -63.637     -71.137     -88.628
  O      -64.333     -72.126     -89.382
  O      -66.143     -72.241     -91.246
  O      -64.850     -70.098     -90.778
  H      -65.752     -69.803     -90.552
  H      -63.373     -71.538     -87.672
  H      -64.266     -70.282     -88.495
  H      -62.749     -70.849     -89.151

 6  7  8  9  10  11  12  13  14  15  16  26  31  32  33  34  35 0
 6-311+G(2d,p)
 ****
 36  37 0
 6-311+G(2d,p)
 ****
 1  2  3  4  5  17  18  19  20  21  22  23  24  25 0
 3-21G
 ****
 27  28  29  30  38  39  40  41  42  43  44  45 0
 3-21G
 ****


