%nproc=1
%NoSave
%Mem=1900MB
#P OB98/GEN NMR

erre ene a

0 1
  C      178.900     200.128      39.929
  O      178.713     201.501      40.217
  H      179.096     200.018      38.859
  H      177.999     199.565      40.186
  H      179.756     199.738      40.488
  P      178.452     201.877      41.753
  C      175.857     201.726      41.526
  O      177.037     201.220      42.134
  C      174.621     201.047      42.124
  O      173.430     201.626      41.512
  C      174.564     199.531      41.870
  O      173.864     198.910      42.962
  C      173.705     199.460      40.619
  O      173.216     198.154      40.428
  C      172.672     200.531      40.954
  N      169.021     199.216      37.649
  C      169.501     198.602      38.751
  N      170.474     199.025      39.586
  C      170.940     200.226      39.204
  C      170.549     200.970      38.103
  C      169.538     200.414      37.297
  N      169.059     201.024      36.160
  N      171.278     202.143      38.027
  C      172.092     202.107      39.064
  N      171.918     200.968      39.802
  O      178.138     203.448      41.697
  O      179.564     201.564      42.694
  H      172.724     198.079      39.585
  H      178.957     203.956      41.839
  H      169.049     197.644      38.994
  H      172.822     202.863      39.321
  H      171.954     200.196      41.714
  H      174.281     199.729      39.728
  H      175.551     199.073      41.755
  H      174.566     201.274      43.195
  H      175.908     201.529      40.450
  H      175.798     202.807      41.691
  H      168.356     200.545      35.623
  H      169.462     201.903      35.868
  P      174.709     198.198      44.127
  C      174.914     195.780      43.171
  O      175.572     196.985      43.533
  O      173.567     197.433      44.948
  O      175.460     199.125      45.029
  H      173.693     197.578      45.907
  H      175.632     195.081      42.795
  H      174.186     195.985      42.414
  H      174.429     195.366      44.030

 6  7  8  9  10  11  12  13  14  15  25  28  32  33  34  35 0
 6-311+G(2d,p)
 ****
 36  37  40 0
 6-311+G(2d,p)
 ****
 1  2  3  4  5  16  17  18  19  20  21  22  23  24 0
 3-21G
 ****
 26  27  29  30  31  38  39 41  42  43  44  45  46  47  48 0
 3-21G
 ****


