%nproc=1
%NoSave
%Mem=1900MB
#P OB98/GEN NMR

erre ene a

0 1
  C     -482.595     101.313     138.119
  O     -483.876     101.843     137.829
  P     -484.147     102.372     136.344
  C     -485.411     100.255     135.497
  O     -484.266     101.087     135.393
  C     -486.402     100.598     134.379
  O     -485.857     100.229     133.098
  C     -487.727      99.850     134.496
  O     -488.576     100.441     135.465
  C     -488.260      99.954     133.072
  O     -488.923     101.212     132.862
  C     -486.964      99.874     132.239
  N     -486.774      98.568     131.615
  C     -487.317      98.414     130.344
  O     -487.939      99.312     129.768
  N     -487.152      97.185     129.768
  C     -486.564      96.097     130.346
  O     -486.498      95.004     129.800
  C     -486.035      96.305     131.705
  C     -486.169      97.513     132.272
  O     -482.754     103.038     135.912
  O     -485.277     103.336     136.223
  H     -488.260     101.906     133.027
  H     -482.920     103.818     135.351
  H     -487.515      97.059     128.839
  H     -485.564      95.469     132.196
  H     -485.802      97.687     133.277
  H     -486.982     100.634     131.447
  H     -488.987      99.166     132.844
  H     -487.542      98.791     134.729
  H     -486.568     101.680     134.387
  H     -485.885     100.412     136.471
  H     -485.102      99.206     135.430
  P     -489.442      99.444     136.378
  C     -488.198     100.068     138.594
  O     -488.493      99.090     137.619
  O     -489.449      98.132     135.462
  O     -490.789      99.985     136.716
  H     -488.631      98.037     134.947
  H     -489.055     100.724     138.771
  H     -487.343     100.666     138.263
  H     -487.942      99.562     139.528
  H     -482.561     101.002     139.142
  H     -481.852     102.064     137.950
  H     -482.404     100.473     137.484

 3  4  5  6  7  8  9  10  11  12  13  23  28  29  30  31  32 0
 6-311+G(2d,p)
 ****
 33  34 0
 6-311+G(2d,p)
 ****
 1  2  14  15  16  17  18  19  20  21  22  24  25  26 0
 3-21G
 ****
 27  35  36  37  38  39  40  41  42  43  44  45 0
 3-21G
 ****


