%nproc=1
%NoSave
%Mem=1900MB
#P OB98/GEN NMR

erre ene a

0 1
  C      478.159     576.655     272.133
  O      477.619     575.508     272.776
  P      478.638     574.464     273.423
  C      477.838     572.588     271.809
  O      478.034     572.997     273.154
  C      476.548     571.768     271.668
  O      476.720     570.512     272.389
  C      475.290     572.452     272.215
  O      474.211     572.056     271.370
  C      475.169     571.825     273.596
  O      473.894     571.977     274.181
  C      475.603     570.397     273.283
  N      473.821     567.682     277.251
  C      473.203     568.238     276.182
  N      473.741     568.943     275.162
  C      475.075     569.040     275.324
  C      475.841     568.557     276.351
  C      475.166     567.833     277.364
  N      475.797     567.280     278.446
  N      477.180     568.868     276.170
  C      477.201     569.545     275.045
  N      475.962     569.661     274.474
  O      478.432     574.659     274.994
  O      480.077     574.641     273.016
  H      473.662     572.912     274.286
  H      479.276     574.600     275.472
  H      472.114     568.105     276.156
  H      478.087     569.980     274.613
  H      474.813     569.828     272.777
  H      475.888     572.309     274.265
  H      475.360     573.546     272.217
  H      476.419     571.512     270.603
  H      478.684     571.966     271.495
  H      475.211     566.973     279.211
  H      476.764     567.571     278.622
  H      477.810     573.467     271.157
  P      473.698     573.052     270.222
  C      472.226     574.429     271.806
  O      472.251     573.520     270.729
  O      473.319     572.017     269.061
  O      474.670     574.111     269.819
  H      472.732     571.305     269.390
  H      471.194     574.750     271.993
  H      472.832     575.324     271.575
  H      472.604     573.954     272.717
  H      477.362     577.258     271.751
  H      478.792     576.347     271.327
  H      478.730     577.223     272.837

 3  4  5  6  7  8  9  10  11  12  22  25  29  30  31  32 0
 6-311+G(2d,p)
 ****
 33  36  37 0
 6-311+G(2d,p)
 ****
 1  2  13  14  15  16  17  18  19  20  21  23  24  26 0
 3-21G
 ****
 27  28  34  35  38  39  40  41  42  43  44  45  46  47  48 0
 3-21G
 ****


