%nproc=1
%NoSave
%Mem=1900MB
#P OB98/GEN NMR

erre ene a

0 1
  C     -519.418     -52.110     301.567
  O     -520.065     -52.275     300.321
  H     -518.995     -53.070     301.871
  H     -520.139     -51.788     302.319
  H     -518.609     -51.378     301.487
  P     -520.556     -50.949     299.565
  C     -522.769     -51.652     298.396
  O     -521.373     -51.437     298.270
  C     -523.296     -52.408     297.178
  O     -523.034     -51.609     295.988
  C     -522.638     -53.779     296.962
  O     -523.630     -54.679     296.451
  C     -521.613     -53.500     295.882
  O     -521.232     -54.648     295.136
  C     -522.355     -52.453     295.037
  N     -521.453     -51.676     294.193
  C     -520.810     -52.353     293.159
  O     -521.001     -53.527     292.859
  N     -519.897     -51.611     292.451
  C     -519.557     -50.305     292.684
  O     -518.719     -49.705     292.029
  C     -520.271     -49.653     293.792
  C     -521.167     -50.356     294.484
  O     -519.200     -50.364     298.951
  O     -521.277     -49.954     300.415
  H     -518.773     -49.755     299.584
  H     -520.918     -55.321     295.771
  H     -519.418     -52.081     291.705
  H     -520.020     -48.621     294.017
  H     -521.692     -49.909     295.321
  H     -523.118     -52.937     294.421
  H     -520.705     -53.073     296.328
  H     -522.184     -54.204     297.862
  H     -524.384     -52.505     297.264
  H     -523.282     -50.685     298.466
  H     -522.966     -52.219     299.314
  P     -524.203     -55.789     297.455
  C     -524.140     -57.659     295.619
  O     -524.916     -56.884     296.523
  O     -525.410     -54.997     298.130
  O     -523.173     -56.309     298.400
  H     -525.858     -54.386     297.520
  H     -524.779     -58.331     295.086
  H     -523.410     -58.219     296.165
  H     -523.646     -57.010     294.926

 6  7  8  9  10  11  12  13  14  15  16  27  31  32  33  34  35 0
 6-311+G(2d,p)
 ****
 36  37 0
 6-311+G(2d,p)
 ****
 1  2  3  4  5  17  18  19  20  21  22  23  24  25 0
 3-21G
 ****
 26  28  29  30  38  39  40  41  42  43  44  45 0
 3-21G
 ****


