%nproc=1
%NoSave
%Mem=1900MB
#P OB98/GEN NMR

erre ene a

0 1
  C       -0.133      36.482     -99.639
  O       -0.949      36.098     -98.550
  H        0.022      35.612    -100.283
  H        0.839      36.840     -99.292
  H       -0.629      37.263    -100.222
  P       -1.112      37.128     -97.329
  C        0.527      38.785     -96.217
  O        0.384      37.558     -96.927
  C        1.604      38.670     -95.136
  O        1.121      37.872     -94.036
  C        2.872      37.974     -95.605
  O        3.627      38.718     -96.537
  C        3.511      37.539     -94.295
  O        4.319      38.546     -93.696
  C        2.270      37.268     -93.409
  N        2.072      35.845     -93.165
  C        1.928      35.473     -91.834
  O        1.982      36.269     -90.896
  N        1.759      34.136     -91.602
  C        1.773      33.154     -92.549
  O        1.658      31.966     -92.273
  C        1.956      33.606     -93.938
  C        2.095      34.911     -94.180
  O       -1.933      36.643     -96.173
  O       -1.692      38.448     -98.020
  H        5.099      38.668     -94.272
  H       -2.083      39.059     -97.350
  H        1.642      33.849     -90.644
  H        1.975      32.854     -94.715
  H        2.233      35.270     -95.197
  H        2.386      37.762     -92.436
  H        4.145      36.660     -94.432
  H        2.580      37.053     -96.124
  H        1.821      39.675     -94.757
  H       -0.435      39.009     -95.743
  H        0.772      39.590     -96.917
  P        4.405      38.055     -97.765
  C        6.753      37.034     -98.204
  O        5.890      37.683     -97.276
  O        4.232      38.703     -99.100
  O        3.700      36.605     -97.839
  H        3.667      36.343     -98.779
  H        7.700      36.850     -97.742
  H        6.890      37.659     -99.061
  H        6.317      36.105     -98.506

 6  7  8  9  10  11  12  13  14  15  16  26  31  32  33  34  35 0
 6-311+G(2d,p)
 ****
 36  37 0
 6-311+G(2d,p)
 ****
 1  2  3  4  5  17  18  19  20  21  22  23  24  25 0
 3-21G
 ****
 27  28  29  30  38  39  40  41  42  43  44  45 0
 3-21G
 ****


