%nproc=1
%NoSave
%Mem=1900MB
#P OB98/GEN NMR

erre ene a

0 1
  C      -30.337     997.330     395.728
  O      -30.468     996.140     396.479
  H      -31.194     997.975     395.937
  H      -30.319     997.101     394.658
  H      -29.423     997.859     396.011
  P      -29.290     995.061     396.329
  C      -28.144     993.861     394.324
  O      -29.223     994.680     394.771
  C      -28.657     992.843     393.311
  O      -28.900     993.494     392.039
  C      -27.677     991.722     393.014
  O      -27.667     990.734     394.026
  C      -28.205     991.214     391.677
  O      -29.292     990.295     391.858
  C      -28.702     992.501     391.004
  N      -26.973     991.871     386.243
  C      -27.982     991.274     386.920
  N      -28.389     991.511     388.190
  C      -27.652     992.492     388.752
  C      -26.595     993.183     388.176
  C      -26.266     992.841     386.855
  N      -25.220     993.424     386.164
  N      -26.063     994.088     389.070
  C      -26.784     993.945     390.171
  N      -27.760     992.997     390.017
  O      -29.907     993.752     397.012
  O      -27.991     995.450     396.951
  H      -29.470     989.913     390.973
  H      -29.561     993.665     397.923
  H      -28.528     990.511     386.386
  H      -26.637     994.499     391.090
  H      -29.666     992.363     390.500
  H      -27.422     990.698     391.124
  H      -26.668     992.130     392.859
  H      -29.617     992.440     393.672
  H      -27.708     993.332     395.180
  H      -27.384     994.500     393.874
  H      -24.998     993.076     385.248
  H      -24.617     994.067     386.656
  P      -26.341     989.842     394.187
  C      -25.155     987.988     392.790
  O      -26.294     988.825     392.953
  O      -26.651     988.914     395.443
  O      -25.087     990.632     394.374
  H      -25.833     988.766     395.964
  H      -25.284     987.374     391.923
  H      -25.043     987.366     393.654
  H      -24.281     988.594     392.671

 6  7  8  9  10  11  12  13  14  15  25  28  32  33  34  35 0
 6-311+G(2d,p)
 ****
 36  37  40 0
 6-311+G(2d,p)
 ****
 1  2  3  4  5  16  17  18  19  20  21  22  23  24 0
 3-21G
 ****
 26  27  29  30  31  38  39 41  42  43  44  45  46  47  48 0
 3-21G
 ****


