%nproc=1
%NoSave
%Mem=1900MB
#P OB98/GEN NMR

erre ene a

0 1
  C      446.491      95.552     -46.352
  O      446.097      95.256     -45.009
  P      445.888      96.491     -44.001
  C      443.319      96.133     -43.770
  O      444.586      96.216     -43.116
  C      442.359      95.265     -42.953
  O      442.585      93.864     -43.201
  C      442.522      95.435     -41.451
  O      441.906      96.633     -41.017
  C      441.872      94.171     -40.913
  O      440.465      94.360     -40.666
  C      442.097      93.150     -42.049
  N      443.008      92.077     -41.672
  C      442.493      91.121     -40.783
  O      441.346      91.238     -40.349
  N      443.308      90.093     -40.395
  C      444.528      90.030     -40.825
  N      445.289      88.985     -40.398
  C      445.120      91.031     -41.747
  C      444.303      92.015     -42.129
  O      445.431      97.680     -44.977
  O      447.120      96.851     -43.232
  H      440.411      95.090     -40.015
  H      445.758      98.533     -44.642
  H      446.141      90.939     -42.078
  H      444.647      92.796     -42.797
  H      441.141      92.688     -42.351
  H      442.316      93.864     -39.962
  H      443.595      95.442     -41.192
  H      441.325      95.515     -43.248
  H      444.859      88.321     -39.766
  H      443.435      95.721     -44.776
  H      446.250      88.842     -40.670
  H      442.921      97.146     -43.897
  P      442.167      97.099     -39.507
  C      442.622      99.525     -40.237
  O      441.792      98.663     -39.489
  O      443.775      97.157     -39.453
  O      441.598      96.260     -38.418
  H      444.068      97.348     -38.538
  H      442.144     100.504     -40.305
  H      442.776      99.135     -41.243
  H      443.589      99.641     -39.725
  H      446.591      94.641     -46.903
  H      447.428      96.068     -46.343
  H      445.748      96.168     -46.814

 3  4  5  6  7  8  9  10  11  12  13  21  23  27  28  29  30  32 0
 6-311+G(2d,p)
 ****
 34  35 0
 6-311+G(2d,p)
 ****
 1  2  14  15  16  17  18  19  20  22  24  25  26 0
 3-21G
 ****
 31  33  36  37  38  39  40  41  42  43  44  45  46 0
 3-21G
 ****


