%nproc=1
%NoSave
%Mem=1900MB
#P OB98/GEN NMR

erre ene a

0 1
  C        3.278      28.445    -120.818
  O        1.882      28.674    -120.739
  P        0.951      27.972    -121.845
  C        0.974      30.129    -123.293
  O        1.240      28.732    -123.228
  C        0.050      30.467    -124.463
  O        0.675      30.034    -125.696
  C       -1.332      29.813    -124.377
  O       -2.288      30.742    -124.889
  C       -1.227      28.638    -125.332
  O       -2.506      28.238    -125.821
  C       -0.274      29.202    -126.399
  N        0.397      28.147    -127.152
  C       -0.287      27.627    -128.255
  O       -1.432      28.006    -128.505
  N        0.322      26.660    -129.016
  C        1.466      26.175    -128.642
  N        2.029      25.219    -129.430
  C        2.162      26.608    -127.414
  C        1.589      27.601    -126.738
  O       -0.515      28.471    -121.447
  O        1.051      26.482    -121.888
  H       -3.090      28.076    -125.047
  H       -1.185      27.792    -121.663
  H        3.097      26.145    -127.129
  H        2.040      27.999    -125.838
  H       -0.818      29.842    -127.104
  H       -0.768      27.782    -124.821
  H       -1.604      29.527    -123.357
  H       -0.050      31.558    -124.516
  H        1.524      24.928    -130.258
  H        1.917      30.663    -123.437
  H        2.917      24.783    -129.219
  H        0.537      30.459    -122.345
  P       -3.623      30.985    -124.034
  C       -5.164      29.923    -125.793
  O       -4.626      29.819    -124.487
  O       -4.254      32.259    -124.780
  O       -3.489      31.231    -122.568
  H       -5.054      32.553    -124.309
  H       -5.712      29.005    -126.020
  H       -4.364      30.047    -126.528
  H       -5.856      30.767    -125.844
  H        3.771      28.969    -120.026
  H        3.644      28.796    -121.760
  H        3.473      27.397    -120.728

 3  4  5  6  7  8  9  10  11  12  13  21  23  27  28  29  30  32 0
 6-311+G(2d,p)
 ****
 34  35 0
 6-311+G(2d,p)
 ****
 1  2  14  15  16  17  18  19  20  22  24  25  26 0
 3-21G
 ****
 31  33  36  37  38  39  40  41  42  43  44  45  46 0
 3-21G
 ****


