%nproc=1
%NoSave
%Mem=1900MB
#P OB98/GEN NMR

erre ene a

0 1
  C      -19.962      13.525       8.247
  O      -21.249      12.948       8.351
  H      -19.522      13.223       7.293
  H      -19.318      13.173       9.057
  H      -20.030      14.616       8.270
  P      -22.095      13.205       9.687
  C      -23.361      15.070       8.424
  O      -22.630      14.715       9.592
  C      -24.791      15.456       8.791
  O      -24.792      16.527       9.755
  C      -25.634      15.940       7.611
  O      -26.142      14.840       6.875
  C      -26.723      16.706       8.343
  O      -27.668      15.779       8.912
  C      -25.924      17.395       9.465
  N      -27.105      22.294       8.851
  C      -27.928      21.203       9.061
  N      -29.257      21.449       9.079
  N      -27.490      19.982       9.226
  C      -26.146      19.875       9.112
  C      -25.229      20.877       8.888
  C      -25.722      22.234       8.775
  O      -25.023      23.232       8.612
  N      -23.960      20.373       8.741
  C      -24.104      19.076       8.929
  N      -25.416      18.719       9.150
  O      -21.402      12.888      10.977
  O      -23.423      12.334       9.488
  H      -28.227      16.283       9.533
  H      -23.320      11.443       9.871
  H      -27.500      23.210       8.723
  H      -23.298      18.351       8.921
  H      -26.509      17.492      10.387
  H      -27.283      17.378       7.689
  H      -29.659      22.336       8.811
  H      -25.074      16.636       6.977
  H      -29.877      20.654       9.174
  H      -25.259      14.588       9.275
  H      -23.359      14.201       7.758
  H      -22.876      15.906       7.909
  P      -26.635      15.002       5.354
  C      -24.256      14.315       4.602
  O      -25.301      15.268       4.503
  O      -27.715      16.008       5.149
  O      -27.024      13.520       4.905
  H      -27.950      13.273       5.155
  H      -23.436      14.620       3.986
  H      -24.612      13.360       4.276
  H      -23.931      14.246       5.619

 6  7  8  9  10  11  12  13  14  15  26  29  33  34 0
 6-311+G(2d,p)
 ****
 36  38  39  40  41 0
 6-311+G(2d,p)
 ****
 1  2  3  4  5  16  17  18  19  20  21  22  23  24  25 0
 3-21G
 ****
 27  28  30  31  32  35  37  42  43  44  45  46  47 0
 3-21G
 ****
 48  49 0
 3-21G
 ****


