%nproc=1
%NoSave
%Mem=1900MB
#P OB98/GEN NMR

erre ene a

0 1
  C      -59.779    -893.070     373.703
  O      -59.034    -894.270     373.655
  H      -59.660    -892.590     374.681
  H      -59.401    -892.390     372.929
  H      -60.844    -893.260     373.511
  P      -59.444    -895.410     374.701
  C      -59.105    -895.700     377.262
  O      -58.722    -895.010     376.084
  C      -58.148    -895.360     378.398
  O      -57.990    -893.920     378.509
  C      -58.603    -895.830     379.776
  O      -58.310    -897.210     379.996
  C      -57.757    -894.950     380.670
  O      -56.411    -895.450     380.721
  C      -57.800    -893.610     379.906
  N      -59.162    -890.050     383.329
  C      -58.017    -890.760     383.182
  N      -57.741    -891.680     382.241
  C      -58.782    -891.880     381.417
  C      -60.018    -891.220     381.470
  C      -60.181    -890.280     382.479
  N      -61.355    -889.570     382.662
  N      -60.846    -891.710     380.480
  C      -60.123    -892.580     379.815
  N      -58.874    -892.730     380.358
  O      -58.609    -896.680     374.211
  O      -60.906    -895.700     374.821
  H      -56.039    -895.370     379.823
  H      -59.010    -897.510     374.560
  H      -57.236    -890.550     383.889
  H      -60.462    -893.150     378.954
  H      -56.858    -893.050     380.000
  H      -58.119    -894.900     381.694
  H      -59.657    -895.610     379.949
  H      -57.159    -895.780     378.154
  H      -59.076    -896.780     377.076
  H      -61.441    -889.050     383.516
  H      -62.164    -889.840     382.121
  H      -60.122    -895.410     377.535
  P      -59.051    -897.940     381.224
  C      -59.292    -897.360     383.751
  O      -58.601    -897.130     382.541
  O      -58.270    -899.320     381.346
  O      -60.527    -898.100     381.053
  H      -58.849    -900.000     381.744
  H      -58.873    -896.749     384.523
  H      -59.201    -898.391     384.024
  H      -60.326    -897.115     383.623

 6  7  8  9  10  11  12  13  14  15  25  28  32  33  34  35 0
 6-311+G(2d,p)
 ****
 36  39  40 0
 6-311+G(2d,p)
 ****
 1  2  3  4  5  16  17  18  19  20  21  22  23  24 0
 3-21G
 ****
 26  27  29  30  31  37  38  41  42  43  44  45  46  47 0
 3-21G
 ****
 48 0
 3-21G
 ****


