%nproc=1
%NoSave
%Mem=1900MB
#P OB98/GEN NMR

erre ene a

0 1
  C      356.104    -170.520    -408.925
  O      354.955    -171.126    -408.306
  P      354.816    -170.988    -406.715
  C      355.355    -172.460    -404.639
  O      355.166    -172.414    -406.049
  C      355.422    -173.911    -404.127
  O      354.108    -174.536    -404.208
  C      356.379    -174.802    -404.916
  O      356.908    -175.810    -404.038
  C      355.469    -175.464    -405.936
  O      356.058    -176.646    -406.485
  C      354.229    -175.693    -405.060
  N      350.539    -178.950    -406.217
  C      351.641    -179.108    -405.399
  N      351.758    -180.299    -404.763
  N      352.549    -178.173    -405.212
  C      352.278    -177.028    -405.886
  C      351.232    -176.760    -406.734
  C      350.255    -177.806    -406.945
  O      349.269    -177.725    -407.681
  N      351.319    -175.482    -407.248
  C      352.428    -174.986    -406.716
  N      353.018    -175.875    -405.843
  O      353.225    -170.855    -406.500
  O      355.533    -169.815    -406.137
  H      356.101    -177.313    -405.753
  H      353.005    -169.945    -406.245
  H      349.882    -179.703    -406.336
  H      352.832    -174.013    -406.911
  H      354.330    -176.579    -404.426
  H      355.248    -174.775    -406.755
  H      351.065    -181.033    -404.820
  H      357.219    -174.258    -405.397
  H      352.535    -180.415    -404.126
  H      355.713    -173.897    -403.073
  H      354.542    -171.930    -404.129
  H      356.272    -171.911    -404.384
  P      358.498    -175.843    -403.835
  C      360.404    -177.372    -404.728
  O      359.036    -176.974    -404.828
  O      358.677    -176.500    -402.385
  O      359.166    -174.509    -403.936
  H      359.519    -176.222    -401.989
  H      360.464    -178.329    -404.215
  H      360.998    -176.629    -404.182
  H      360.812    -177.478    -405.727
  H      356.070    -170.688    -409.981
  H      356.996    -170.954    -408.523
  H      356.100    -169.468    -408.731

 3  4  5  6  7  8  9  10  11  12  23  26  30  31 0
 6-311+G(2d,p)
 ****
 33  35  36  37  38 0
 6-311+G(2d,p)
 ****
 1  2  13  14  15  16  17  18  19  20  21  22  24  25 0
 3-21G
 ****
 27  28  29  32  34  39  40  41  42  43  44  45  46  47  48  49 0
 3-21G
 ****


