%nproc=1
%NoSave
%Mem=1900MB
#P OB98/GEN NMR

erre ene a

0 1
  C     -182.793     536.128     289.255
  O     -182.368     535.834     287.922
  P     -181.470     536.921     287.160
  C     -182.669     536.319     284.871
  O     -181.487     536.626     285.585
  C     -182.299     535.517     283.606
  O     -181.796     534.211     283.969
  C     -183.480     535.314     282.655
  O     -183.644     536.396     281.768
  C     -183.108     534.010     281.969
  O     -182.117     534.250     280.959
  C     -182.483     533.216     283.151
  N     -183.396     532.441     284.023
  C     -184.153     531.402     283.478
  O     -184.132     531.069     282.305
  N     -184.967     530.723     284.360
  C     -184.962     530.863     285.712
  O     -185.675     530.179     286.458
  C     -184.043     531.860     286.255
  C     -183.322     532.599     285.393
  O     -179.977     536.555     287.597
  O     -181.809     538.343     287.474
  H     -182.503     534.877     280.314
  H     -179.589     537.284     288.117
  H     -185.574     530.020     283.970
  H     -183.978     531.970     287.332
  H     -182.641     533.350     285.783
  H     -181.729     532.513     282.784
  H     -183.957     533.569     281.464
  H     -184.394     535.132     283.239
  H     -181.490     536.054     283.080
  H     -183.209     537.229     284.602
  H     -183.338     535.724     285.510
  P     -184.996     537.244     281.796
  C     -185.718     536.713     279.380
  O     -185.250     537.713     280.269
  O     -185.082     538.333     282.818
  O     -186.145     536.139     282.001
  H     -186.389     536.057     282.952
  H     -185.992     537.196     278.438
  H     -186.605     536.220     279.797
  H     -184.930     535.982     279.198
  H     -183.380     535.315     289.630
  H     -183.382     537.022     289.253
  H     -181.936     536.267     289.880

 3  4  5  6  7  8  9  10  11  12  13  23  28  29  30  31  32 0
 6-311+G(2d,p)
 ****
 33  34 0
 6-311+G(2d,p)
 ****
 1  2  14  15  16  17  18  19  20  21  22  24  25  26  27 0
 3-21G
 ****
 35  36  37  38  39  40  41  42  43  44  45 0
 3-21G
 ****


