%nproc=1
%NoSave
%Mem=1900MB
#P OB98/GEN NMR

erre ene a

0 1
  C      -15.204    -312.977    -233.848
  O      -15.556    -312.539    -232.546
  P      -15.471    -313.627    -231.366
  C      -17.731    -312.793    -230.365
  O      -16.975    -313.877    -230.876
  C      -19.210    -312.982    -230.716
  O      -19.366    -313.129    -232.142
  C      -19.849    -314.214    -230.087
  O      -20.231    -313.945    -228.748
  C      -21.026    -314.457    -231.024
  O      -22.128    -313.586    -230.704
  C      -20.422    -314.100    -232.392
  N      -20.737    -316.759    -236.681
  C      -21.556    -315.757    -236.192
  N      -22.580    -315.378    -236.989
  N      -21.382    -315.175    -235.036
  C      -20.329    -315.664    -234.344
  C      -19.456    -316.662    -234.709
  C      -19.626    -317.261    -236.014
  O      -18.871    -318.081    -236.531
  N      -18.521    -316.899    -233.734
  C      -18.812    -316.020    -232.795
  N      -19.886    -315.232    -233.122
  O      -14.798    -312.814    -230.171
  O      -14.721    -314.880    -231.708
  H      -22.553    -313.896    -229.885
  H      -13.839    -313.001    -230.120
  H      -20.907    -317.159    -237.585
  H      -18.266    -315.902    -231.871
  H      -21.155    -313.612    -233.050
  H      -21.406    -315.478    -230.954
  H      -22.790    -315.798    -237.882
  H      -19.161    -315.066    -230.129
  H      -23.192    -314.647    -236.648
  H      -19.746    -312.073    -230.414
  H      -17.372    -311.861    -230.810
  H      -17.599    -312.739    -229.279
  P      -19.501    -314.782    -227.590
  C      -21.588    -316.318    -227.436
  O      -20.178    -316.232    -227.556
  O      -20.019    -314.080    -226.250
  O      -18.009    -314.774    -227.668
  H      -19.303    -314.076    -225.584
  H      -21.926    -317.229    -227.932
  H      -22.088    -315.460    -227.888
  H      -21.853    -316.374    -226.376
  H      -15.302    -312.164    -234.537
  H      -15.853    -313.775    -234.143
  H      -14.191    -313.323    -233.846

 3  4  5  6  7  8  9  10  11  12  23  26  30  31 0
 6-311+G(2d,p)
 ****
 33  35  36  37  38 0
 6-311+G(2d,p)
 ****
 1  2  13  14  15  16  17  18  19  20  21  22  24  25 0
 3-21G
 ****
 27  28  29  32  34  39  40  41  42  43  44  45  46  47  48  49 0
 3-21G
 ****


