%nproc=1
%NoSave
%Mem=1900MB
#P OB98/GEN NMR

erre ene a

0 1
  C     -502.335    1015.119    -453.747
  O     -501.327    1014.552    -452.929
  P     -500.544    1013.223    -453.391
  C     -498.666    1014.512    -454.626
  O     -499.007    1013.668    -453.521
  C     -497.605    1015.531    -454.174
  O     -498.182    1016.456    -453.222
  C     -496.400    1014.921    -453.466
  O     -495.519    1014.307    -454.385
  C     -495.856    1016.133    -452.730
  O     -495.074    1016.953    -453.637
  C     -497.142    1016.883    -452.330
  N     -497.505    1016.650    -450.937
  C     -496.597    1017.059    -449.969
  O     -495.522    1017.590    -450.285
  N     -496.915    1016.886    -448.645
  C     -498.038    1016.328    -448.312
  N     -498.340    1016.241    -446.984
  C     -499.013    1015.833    -449.301
  C     -498.701    1016.026    -450.585
  O     -501.104    1012.560    -454.612
  O     -500.532    1012.291    -452.099
  H     -495.642    1017.188    -454.392
  H     -501.329    1011.708    -452.018
  H     -499.926    1015.358    -448.974
  H     -499.352    1015.701    -451.368
  H     -497.017    1017.955    -452.500
  H     -495.191    1015.886    -451.896
  H     -496.732    1014.161    -452.728
  H     -497.281    1016.093    -455.061
  H     -497.726    1016.760    -446.358
  H     -499.566    1015.061    -454.939
  H     -499.280    1016.091    -446.667
  H     -498.301    1013.909    -455.451
  P     -494.788    1012.945    -453.938
  C     -496.809    1011.327    -453.999
  O     -495.605    1011.752    -454.630
  O     -495.141    1012.840    -452.378
  O     -493.309    1012.938    -454.190
  H     -494.382    1013.143    -451.829
  H     -497.356    1010.683    -454.694
  H     -497.443    1012.191    -453.761
  H     -496.593    1010.770    -453.101
  H     -502.733    1015.990    -453.270
  H     -503.118    1014.405    -453.895
  H     -501.916    1015.390    -454.693

 3  4  5  6  7  8  9  10  11  12  13  23  27  28  29  30  32 0
 6-311+G(2d,p)
 ****
 34  35 0
 6-311+G(2d,p)
 ****
 1  2  14  15  16  17  18  19  20  21  22  24  25  26 0
 3-21G
 ****
 31  33  36  37  38  39  40  41  42  43  44  45  46 0
 3-21G
 ****


