%nproc=1
%NoSave
%Mem=1900MB
#P OB98/GEN NMR

erre ene a

0 1
  C      387.288    -591.538     167.655
  O      386.443    -590.459     167.288
  H      387.190    -592.322     166.903
  H      386.991    -591.938     168.621
  H      388.333    -591.210     167.696
  P      386.513    -589.139     168.202
  C      387.617    -587.310     166.713
  O      387.801    -588.313     167.694
  C      388.826    -586.369     166.694
  O      388.962    -585.772     168.014
  C      390.143    -587.092     166.372
  O      390.958    -586.240     165.588
  C      390.776    -587.293     167.747
  O      392.182    -587.462     167.706
  C      390.326    -586.015     168.464
  N      390.365    -586.162     169.920
  C      391.323    -585.421     170.609
  O      392.084    -584.609     170.082
  N      391.395    -585.640     171.956
  C      390.626    -586.517     172.670
  O      390.735    -586.680     173.871
  C      389.626    -587.267     171.892
  C      389.552    -587.063     170.575
  O      386.970    -589.702     169.629
  O      385.251    -588.347     168.284
  H      386.210    -589.933     170.168
  H      392.511    -587.433     168.635
  H      392.077    -585.109     172.468
  H      389.018    -587.992     172.420
  H      388.844    -587.618     169.963
  H      390.929    -585.169     168.152
  H      390.354    -588.181     168.230
  H      389.997    -588.042     165.858
  H      388.633    -585.564     165.995
  H      386.706    -586.737     166.952
  H      387.489    -587.784     165.731
  P      391.154    -586.595     164.023
  C      389.420    -584.828     163.173
  O      389.758    -586.203     163.323
  O      391.116    -588.191     164.093
  O      392.375    -585.990     163.431
  H      390.493    -588.554     164.752
  H      388.468    -584.745     162.693
  H      390.163    -584.341     162.577
  H      389.375    -584.365     164.136

 6  7  8  9  10  11  12  13  14  15  16  27  31  32  33  34  35 0
 6-311+G(2d,p)
 ****
 36  37 0
 6-311+G(2d,p)
 ****
 1  2  3  4  5  17  18  19  20  21  22  23  24  25 0
 3-21G
 ****
 26  28  29  30  38  39  40  41  42  43  44  45 0
 3-21G
 ****


