%nproc=1
%NoSave
%Mem=1900MB
#P OB98/GEN NMR

erre ene a

0 1
  C     -171.475     -88.080     120.949
  O     -171.678     -88.990     122.018
  P     -170.687     -88.925     123.274
  C     -168.096     -88.856     123.494
  O     -169.219     -89.319     122.761
  C     -167.070     -88.221     122.552
  O     -167.653     -87.039     121.925
  C     -165.774     -87.778     123.248
  O     -164.697     -87.962     122.314
  C     -166.010     -86.294     123.463
  O     -164.812     -85.563     123.682
  C     -166.743     -85.946     122.164
  N     -167.447     -84.665     122.234
  C     -166.890     -83.592     121.543
  O     -165.852     -83.662     120.889
  N     -167.537     -82.393     121.680
  C     -168.609     -82.147     122.490
  O     -169.070     -81.024     122.657
  C     -169.155     -83.317     123.196
  C     -168.559     -84.501     123.037
  O     -171.133     -90.185     124.157
  O     -170.747     -87.651     124.050
  H     -164.424     -85.885     124.516
  H     -171.704     -89.899     124.895
  H     -167.156     -81.609     121.177
  H     -170.017     -83.162     123.831
  H     -168.927     -85.379     123.562
  H     -166.036     -85.928     121.323
  H     -166.653     -86.150     124.337
  H     -165.567     -88.316     124.178
  H     -166.846     -88.938     121.748
  H     -167.636     -89.695     124.013
  H     -168.424     -88.129     124.248
  P     -163.234     -88.266     122.907
  C     -161.607     -86.883     124.413
  O     -162.684     -86.885     123.503
  O     -162.399     -88.461     121.551
  O     -163.187     -89.451     123.816
  H     -162.618     -87.798     120.875
  H     -160.890     -87.681     124.194
  H     -161.989     -87.014     125.427
  H     -161.090     -85.920     124.352
  H     -172.212     -88.249     120.192
  H     -170.499     -88.228     120.535
  H     -171.560     -87.077     121.313

 3  4  5  6  7  8  9  10  11  12  13  23  28  29  30  31  32 0
 6-311+G(2d,p)
 ****
 33  34 0
 6-311+G(2d,p)
 ****
 1  2  14  15  16  17  18  19  20  21  22  24  25  26 0
 3-21G
 ****
 27  35  36  37  38  39  40  41  42  43  44  45 0
 3-21G
 ****


