%nproc=1
%NoSave
%Mem=1900MB
#P OB98/GEN NMR

erre ene a

0 1
  C       18.936    -621.969     143.307
  O       19.422    -620.705     143.712
  H       18.492    -622.463     144.174
  H       19.752    -622.589     142.931
  H       18.166    -621.853     142.539
  P       20.181    -619.792     142.638
  C       22.698    -620.283     142.952
  O       21.514    -620.581     142.217
  C       23.832    -621.223     142.528
  O       24.103    -620.975     141.124
  C       25.125    -620.975     143.322
  O       25.648    -622.163     143.910
  C       26.001    -620.220     142.328
  O       27.391    -620.363     142.553
  C       25.516    -620.732     140.970
  N       25.758    -619.804     139.867
  C       26.988    -619.894     139.215
  O       27.873    -620.700     139.484
  N       27.180    -619.002     138.192
  C       26.300    -618.044     137.784
  O       26.530    -617.272     136.859
  C       25.032    -617.978     138.529
  C       24.827    -618.849     139.520
  O       20.396    -618.370     143.041
  O       19.271    -619.898     141.324
  H       27.688    -621.134     142.027
  H       18.770    -619.067     141.209
  H       28.057    -619.069     137.702
  H       24.315    -617.226     138.237
  H       23.898    -618.828     140.087
  H       26.000    -621.677     140.719
  H       25.773    -619.151     142.409
  H       24.935    -620.328     144.185
  H       23.488    -622.259     142.621
  H       22.473    -620.414     144.017
  H       22.989    -619.242     142.771
  P       25.016    -622.928     145.151
  C       26.561    -621.784     146.945
  O       25.248    -622.048     146.468
  O       25.321    -624.385     145.255
  O       23.422    -622.787     144.912
  H       23.017    -623.597     145.284
  H       26.505    -621.184     147.829
  H       27.115    -621.261     146.193
  H       27.051    -622.708     147.171

 6  7  8  9  10  11  12  13  14  15  16  26  31  32  33  34  35 0
 6-311+G(2d,p)
 ****
 36  37 0
 6-311+G(2d,p)
 ****
 1  2  3  4  5  17  18  19  20  21  22  23  24  25 0
 3-21G
 ****
 27  28  29  30  38  39  40  41  42  43  44  45 0
 3-21G
 ****


