%nproc=1
%NoSave
%Mem=1900MB
#P OB98/GEN NMR

erre ene a

0 1
  C      686.971    -695.892     113.917
  O      686.273    -696.370     115.040
  H      686.261    -695.716     113.107
  H      687.688    -696.648     113.569
  H      687.486    -694.970     114.134
  P      687.097    -696.750     116.355
  C      685.614    -695.745     118.223
  O      686.790    -695.570     117.405
  C      684.522    -694.770     117.859
  O      684.173    -694.935     116.475
  C      683.229    -694.956     118.696
  O      682.784    -693.677     119.144
  C      682.251    -695.512     117.671
  O      680.900    -695.262     118.033
  C      682.749    -694.844     116.387
  N      682.205    -695.509     115.206
  C      681.140    -694.848     114.584
  O      680.709    -693.767     115.017
  N      680.563    -695.427     113.480
  C      680.971    -696.577     113.104
  N      680.336    -697.124     111.990
  C      682.054    -697.305     113.717
  C      682.633    -696.736     114.775
  O      688.543    -697.045     116.145
  O      686.301    -697.994     116.993
  H      680.769    -695.499     118.989
  H      686.908    -698.497     117.593
  H      682.368    -698.310     113.372
  H      683.482    -697.203     115.319
  H      682.466    -693.764     116.365
  H      682.373    -696.602     117.608
  H      683.353    -695.628     119.554
  H      684.913    -693.750     117.985
  H      679.579    -696.560     111.594
  H      685.933    -695.636     119.296
  H      680.530    -698.037     111.612
  H      685.284    -696.774     118.087
  P      683.187    -693.298     120.664
  C      684.117    -690.884     120.339
  O      684.404    -692.256     120.616
  O      683.813    -694.648     121.237
  O      682.009    -692.844     121.483
  H      683.219    -695.038     121.907
  H      685.027    -690.322     120.342
  H      683.458    -690.499     121.089
  H      683.651    -690.804     119.379

 6  7  8  9  10  11  12  13  14  15  16  26  30  31  32  33  35 0
 6-311+G(2d,p)
 ****
 37  38 0
 6-311+G(2d,p)
 ****
 1  2  3  4  5  17  18  19  20  21  22  23  24  25 0
 3-21G
 ****
 27  28  29  34  36  39  40  41  42  43  44  45  46 0
 3-21G
 ****


