%nproc=1
%NoSave
%Mem=1900MB
#P OB98/GEN NMR

erre ene a

0 1
  C     1395.192    -838.770     549.878
  O     1396.234    -839.679     549.570
  P     1397.745    -839.218     549.231
  C     1399.060    -840.840     550.802
  O     1398.636    -839.515     550.498
  C     1398.532    -841.355     552.185
  O     1397.080    -841.380     552.148
  C     1398.981    -842.775     552.425
  O     1400.276    -843.023     552.969
  C     1397.828    -843.425     553.218
  O     1398.053    -843.351     554.642
  C     1396.601    -842.548     552.807
  N     1392.534    -845.629     552.557
  C     1393.213    -845.212     553.643
  N     1392.781    -845.630     554.842
  N     1394.228    -844.357     553.616
  C     1394.634    -844.052     552.313
  C     1394.052    -844.443     551.160
  C     1392.842    -845.313     551.219
  O     1392.214    -845.690     550.272
  N     1394.715    -843.938     550.061
  C     1395.697    -843.248     550.577
  N     1395.685    -843.310     552.003
  O     1397.871    -837.867     548.581
  O     1398.224    -840.339     548.148
  H     1397.244    -843.627     555.085
  H     1398.834    -839.846     547.531
  H     1391.727    -846.247     552.644
  H     1396.447    -842.720     550.007
  H     1396.057    -842.227     553.692
  H     1397.733    -844.486     552.973
  H     1392.062    -846.363     554.930
  H     1398.955    -843.302     551.438
  H     1393.420    -845.482     555.627
  H     1398.781    -840.654     552.992
  H     1400.152    -840.860     550.805
  H     1398.761    -841.521     550.003
  P     1401.609    -843.327     552.127
  C     1403.604    -842.528     553.563
  O     1402.688    -842.197     552.533
  O     1401.230    -842.946     550.622
  O     1402.120    -844.755     552.229
  H     1401.881    -843.324     550.002
  H     1404.050    -841.620     553.948
  H     1404.398    -843.160     553.139
  H     1403.091    -843.059     554.406
  H     1394.289    -839.313     550.064
  H     1395.044    -838.104     549.054
  H     1395.456    -838.207     550.749

 3  4  5  6  7  8  9  10  11  12  23  26  30  31 0
 6-311+G(2d,p)
 ****
 33  35  36  37  38 0
 6-311+G(2d,p)
 ****
 1  2  13  14  15  16  17  18  19  20  21  22  24  25 0
 3-21G
 ****
 27  28  29  32  34  39  40  41  42  43  44  45  46  47  48  49 0
 3-21G
 ****


