%nproc=1
%NoSave
%Mem=1900MB
#P OB98/GEN NMR

erre ene a

0 1
  C       12.391      62.844    -106.378
  O       13.712      63.331    -106.248
  H       11.976      62.686    -105.379
  H       12.379      61.892    -106.917
  H       11.771      63.576    -106.903
  P       14.608      63.497    -107.565
  C       16.072      61.953    -109.021
  O       15.224      62.048    -107.881
  C       17.283      61.071    -108.721
  O       18.017      61.653    -107.610
  C       16.920      59.629    -108.348
  O       17.903      58.756    -108.907
  C       17.014      59.641    -106.835
  O       17.238      58.345    -106.316
  C       18.143      60.646    -106.587
  N       18.063      61.214    -105.243
  C       19.108      60.894    -104.367
  O       20.038      60.183    -104.743
  N       19.040      61.331    -103.068
  C       17.995      61.982    -102.660
  N       17.975      62.351    -101.351
  C       16.861      62.319    -103.543
  C       16.958      61.910    -104.808
  O       15.605      64.608    -107.547
  O       13.531      63.695    -108.733
  H       18.083      57.997    -106.665
  H       13.342      64.645    -108.856
  H       16.009      62.857    -103.152
  H       16.166      62.100    -105.525
  H       19.125      60.165    -106.710
  H       16.074      60.020    -106.410
  H       15.920      59.338    -108.693
  H       17.955      61.093    -109.590
  H       18.768      62.079    -100.779
  H       16.407      62.964    -109.275
  H       17.201      62.823    -100.909
  H       15.509      61.546    -109.866
  P       17.482      57.333    -109.522
  C       17.636      54.845    -108.940
  O       17.946      56.168    -108.518
  O       17.886      57.123    -110.946
  O       15.882      57.318    -109.387
  H       15.504      56.781    -110.110
  H       17.984      54.146    -108.208
  H       18.114      54.648    -109.877
  H       16.577      54.746    -109.053

 6  7  8  9  10  11  12  13  14  15  16  26  30  31  32  33  35 0
 6-311+G(2d,p)
 ****
 37  38 0
 6-311+G(2d,p)
 ****
 1  2  3  4  5  17  18  19  20  21  22  23  24  25 0
 3-21G
 ****
 27  28  29  34  36  39  40  41  42  43  44  45  46 0
 3-21G
 ****


