%nproc=1
%NoSave
%Mem=1900MB
#P OB98/GEN NMR

erre ene a

0 1
  C      276.558    -482.381     109.303
  O      276.844    -482.028     110.644
  H      275.961    -481.581     108.852
  H      275.990    -483.311     109.252
  H      277.490    -482.478     108.733
  P      277.490    -483.151     111.592
  C      275.629    -482.631     113.311
  O      277.031    -482.760     113.087
  C      275.336    -482.250     114.765
  O      275.929    -483.210     115.658
  C      275.926    -480.905     115.177
  O      275.311    -479.786     114.567
  C      275.955    -481.007     116.694
  O      274.733    -480.630     117.318
  C      276.203    -482.528     116.905
  N      277.549    -482.803     117.394
  C      277.740    -482.657     118.764
  O      276.845    -482.292     119.537
  N      279.004    -482.894     119.217
  C      280.086    -483.213     118.448
  O      281.210    -483.377     118.911
  C      279.833    -483.327     117.000
  C      278.595    -483.124     116.547
  O      278.967    -483.356     111.449
  O      276.625    -484.461     111.280
  H      274.812    -480.858     118.264
  H      277.086    -485.276     111.597
  H      279.156    -482.809     120.212
  H      280.674    -483.576     116.353
  H      278.378    -483.200     115.483
  H      275.493    -482.922     117.640
  H      276.744    -480.383     117.126
  H      276.975    -480.879     114.846
  H      274.249    -482.267     114.919
  H      275.162    -483.602     113.096
  H      275.215    -481.882     112.629
  P      275.961    -478.978     113.354
  C      274.892    -476.825     114.351
  O      275.144    -477.596     113.184
  O      276.320    -479.760     112.127
  O      277.339    -478.468     114.021
  H      278.020    -478.464     113.316
  H      274.346    -475.944     114.085
  H      275.821    -476.546     114.802
  H      274.319    -477.404     115.044

 6  7  8  9  10  11  12  13  14  15  16  26  31  32  33  34  35 0
 6-311+G(2d,p)
 ****
 36  37 0
 6-311+G(2d,p)
 ****
 1  2  3  4  5  17  18  19  20  21  22  23  24  25 0
 3-21G
 ****
 27  28  29  30  38  39  40  41  42  43  44  45 0
 3-21G
 ****


