%nproc=1
%NoSave
%Mem=1900MB
#P OB98/GEN NMR

erre ene a

0 1
  C     -155.181     689.912     177.034
  O     -155.850     689.815     178.276
  H     -155.373     690.893     176.602
  H     -155.542     689.141     176.342
  H     -154.093     689.797     177.169
  P     -155.717     688.451     179.105
  C     -157.297     687.343     177.388
  O     -157.026     687.597     178.764
  C     -158.622     686.598     177.242
  O     -158.599     685.371     177.987
  C     -159.832     687.400     177.744
  O     -160.251     688.342     176.765
  C     -160.839     686.274     177.967
  O     -161.370     685.855     176.691
  C     -159.940     685.164     178.557
  N     -162.424     684.500     182.923
  C     -162.887     684.443     181.620
  N     -164.212     684.219     181.465
  N     -162.134     684.614     180.569
  C     -160.835     684.897     180.881
  C     -160.261     684.994     182.139
  C     -161.108     684.729     183.291
  O     -160.733     684.753     184.466
  N     -158.948     685.357     182.055
  C     -158.704     685.443     180.770
  N     -159.829     685.195     179.999
  O     -155.450     688.594     180.588
  O     -154.543     687.652     178.363
  H     -161.982     685.117     176.870
  H     -153.683     687.832     178.770
  H     -163.063     684.369     183.688
  H     -157.747     685.682     180.321
  H     -160.264     684.165     178.271
  H     -161.673     686.563     178.592
  H     -164.871     684.369     182.224
  H     -159.633     687.875     178.713
  H     -164.582     684.239     180.522
  H     -158.756     686.342     176.185
  H     -156.482     686.723     177.007
  H     -157.332     688.281     176.827
  P     -160.346     689.915     177.105
  C     -162.453     689.574     178.554
  O     -161.897     690.175     177.408
  O     -159.735     690.810     176.096
  O     -159.684     690.038     178.567
  H     -158.706     690.170     178.548
  H     -163.488     689.834     178.627
  H     -161.936     689.920     179.425
  H     -162.357     688.511     178.481

 6  7  8  9  10  11  12  13  14  15  26  29  33  34 0
 6-311+G(2d,p)
 ****
 36  38  39  40  41 0
 6-311+G(2d,p)
 ****
 1  2  3  4  5  16  17  18  19  20  21  22  23  24  25 0
 3-21G
 ****
 27  28  30  31  32  35  37  42  43  44  45  46  47 0
 3-21G
 ****
 48  49 0
 3-21G
 ****


