%nproc=1
%NoSave
%Mem=1900MB
#P OB98/GEN NMR

erre ene a

0 1
  C      -46.287    -191.756     -54.877
  O      -46.603    -192.647     -53.827
  H      -46.316    -190.733     -54.491
  H      -47.022    -191.848     -55.682
  H      -45.284    -191.960     -55.262
  P      -46.574    -194.212     -54.177
  C      -49.156    -194.517     -54.091
  O      -47.895    -194.844     -53.519
  C      -50.257    -195.321     -53.406
  O      -49.926    -196.727     -53.449
  C      -50.445    -194.989     -51.929
  O      -51.196    -193.801     -51.744
  C      -51.158    -196.241     -51.435
  O      -52.569    -196.180     -51.688
  C      -50.522    -197.345     -52.289
  N      -49.718    -201.530     -49.492
  C      -50.808    -201.079     -50.151
  N      -50.936    -199.957     -50.891
  C      -49.775    -199.280     -50.924
  C      -48.586    -199.613     -50.297
  C      -48.578    -200.803     -49.552
  N      -47.481    -201.245     -48.854
  N      -47.631    -198.644     -50.529
  C      -48.227    -197.747     -51.287
  N      -49.522    -198.094     -51.554
  O      -45.387    -194.763     -53.252
  O      -46.360    -194.539     -55.617
  H      -52.933    -197.055     -51.449
  H      -44.558    -194.789     -53.765
  H      -51.698    -201.698     -50.066
  H      -47.774    -196.835     -51.656
  H      -51.264    -198.065     -52.653
  H      -51.026    -196.373     -50.360
  H      -49.472    -194.916     -51.430
  H      -51.193    -195.173     -53.960
  H      -49.142    -194.762     -55.159
  H      -49.331    -193.442     -53.974
  H      -47.554    -202.095     -48.321
  H      -46.660    -200.655     -48.807
  P      -50.536    -192.603     -50.912
  C      -51.758    -192.890     -48.636
  O      -51.608    -192.121     -49.819
  O      -50.505    -191.400     -51.966
  O      -49.183    -192.898     -50.360
  H      -49.612    -191.306     -52.350
  H      -52.504    -192.443     -48.012
  H      -50.826    -192.922     -48.111
  H      -52.057    -193.885     -48.893

 6  7  8  9  10  11  12  13  14  15  25  28  32  33  34  35 0
 6-311+G(2d,p)
 ****
 36  37  40 0
 6-311+G(2d,p)
 ****
 1  2  3  4  5  16  17  18  19  20  21  22  23  24 0
 3-21G
 ****
 26  27  29  30  31  38  39 41  42  43  44  45  46  47  48 0
 3-21G
 ****


