%nproc=1
%NoSave
%Mem=1900MB
#P OB98/GEN NMR

erre ene a

0 1
  C      117.463     192.466     -64.197
  O      118.676     191.741     -64.242
  P      118.919     190.662     -65.397
  C      117.992     188.347     -66.022
  O      118.121     189.329     -64.998
  C      117.735     186.973     -65.408
  O      118.885     186.536     -64.651
  C      116.564     186.940     -64.431
  O      115.331     186.940     -65.122
  C      116.863     185.659     -63.660
  O      116.408     184.509     -64.392
  C      118.397     185.679     -63.591
  N      118.248     184.931     -58.549
  C      117.522     184.407     -59.557
  N      117.594     184.687     -60.878
  C      118.522     185.632     -61.106
  C      119.318     186.282     -60.175
  C      119.173     185.878     -58.837
  N      119.952     186.360     -57.807
  N      120.127     187.213     -60.799
  C      119.818     187.130     -62.077
  N      118.903     186.146     -62.317
  O      120.345     190.451     -65.786
  O      118.074     191.231     -66.632
  H      115.464     184.648     -64.597
  H      118.674     191.404     -67.383
  H      116.788     183.658     -59.271
  H      120.238     187.746     -62.861
  H      118.826     184.685     -63.769
  H      116.376     185.633     -62.680
  H      116.625     187.793     -63.746
  H      117.576     186.256     -66.226
  H      118.921     188.327     -66.599
  H      119.863     185.899     -56.914
  H      120.826     186.823     -58.040
  H      117.169     188.624     -66.688
  P      114.036     187.587     -64.438
  C      113.005     187.351     -62.102
  O      113.693     186.697     -63.151
  O      112.887     187.858     -65.354
  O      114.592     188.943     -63.791
  H      113.891     189.621     -63.803
  H      113.709     187.962     -61.529
  H      112.571     186.595     -61.441
  H      112.205     187.984     -62.494
  H      117.479     193.136     -63.363
  H      116.644     191.785     -64.092
  H      117.348     193.025     -65.102

 3  4  5  6  7  8  9  10  11  12  22  25  29  30  31  32 0
 6-311+G(2d,p)
 ****
 33  36  37 0
 6-311+G(2d,p)
 ****
 1  2  13  14  15  16  17  18  19  20  21  23  24  26 0
 3-21G
 ****
 27  28  34  35  38  39  40  41  42  43  44  45  46  47  48 0
 3-21G
 ****


