%nproc=1
%NoSave
%Mem=1900MB
#P OB98/GEN NMR

erre ene a

0 1
  C       59.418     -67.013     188.184
  O       60.333     -67.707     187.354
  P       61.548     -68.499     188.044
  C       63.154     -66.516     187.421
  O       62.658     -67.401     188.408
  C       64.654     -66.274     187.627
  O       64.848     -65.568     188.884
  C       65.501     -67.552     187.685
  O       66.764     -67.251     187.076
  C       65.670     -67.778     189.179
  O       66.792     -68.588     189.485
  C       65.778     -66.331     189.675
  N       65.483     -66.183     191.100
  C       66.335     -66.805     192.007
  O       67.304     -67.489     191.681
  N       66.017     -66.640     193.333
  C       64.922     -65.986     193.821
  O       64.676     -65.885     195.018
  C       64.035     -65.389     192.814
  C       64.356     -65.505     191.524
  O       62.161     -69.276     186.790
  O       61.127     -69.367     189.181
  H       62.117     -68.764     185.964
  H       67.598     -68.080     189.273
  H       66.640     -67.052     194.010
  H       63.145     -64.877     193.164
  H       63.714     -65.076     190.762
  H       66.779     -65.937     189.462
  H       64.776     -68.273     189.574
  H       65.030     -68.392     187.166
  H       65.008     -65.614     186.826
  H       62.626     -65.560     187.490
  H       62.961     -66.936     186.427
  P       67.394     -68.331     186.059
  C       69.372     -69.061     187.611
  O       68.184     -69.410     186.938
  O       68.579     -67.458     185.417
  O       66.443     -68.859     185.035
  H       69.112     -66.997     186.086
  H       69.562     -69.796     188.396
  H       69.292     -68.072     188.074
  H       70.211     -69.070     186.910
  H       58.674     -66.541     187.577
  H       59.941     -66.270     188.749
  H       58.948     -67.704     188.852

 3  4  5  6  7  8  9  10  11  12  13  24  28  29  30  31  32 0
 6-311+G(2d,p)
 ****
 33  34 0
 6-311+G(2d,p)
 ****
 1  2  14  15  16  17  18  19  20  21  22  23  25  26  27 0
 3-21G
 ****
 35  36  37  38  39  40  41  42  43  44  45 0
 3-21G
 ****


