%nproc=1
%NoSave
%Mem=1900MB
#P OB98/GEN NMR

erre ene a

0 1
  C     -140.603     463.210     -49.906
  O     -140.636     463.956     -48.697
  P     -141.590     465.252     -48.654
  C     -139.497     466.623     -47.962
  O     -140.616     466.512     -48.839
  C     -138.678     467.870     -48.292
  O     -137.883     467.633     -49.459
  C     -139.506     469.113     -48.608
  O     -139.967     469.757     -47.440
  C     -138.489     469.955     -49.353
  O     -137.655     470.645     -48.401
  C     -137.673     468.904     -50.123
  N     -136.326     469.845     -54.914
  C     -135.665     470.125     -53.738
  N     -134.451     470.707     -53.847
  N     -136.141     469.847     -52.545
  C     -137.344     469.227     -52.585
  C     -138.101     468.904     -53.689
  C     -137.582     469.252     -54.993
  O     -138.166     469.091     -56.065
  N     -139.258     468.266     -53.326
  C     -139.180     468.162     -52.013
  N     -138.051     468.761     -51.520
  O     -142.009     465.341     -47.107
  O     -142.776     465.198     -49.549
  H     -136.819     470.865     -48.857
  H     -142.860     465.808     -47.023
  H     -135.908     470.063     -55.793
  H     -139.915     467.676     -51.385
  H     -136.597     469.119     -50.068
  H     -138.949     470.723     -49.986
  H     -133.973     470.831     -54.744
  H     -140.339     468.858     -49.289
  H     -133.933     470.880     -52.998
  H     -138.006     468.066     -47.453
  H     -138.859     465.744     -48.061
  H     -139.869     466.677     -46.933
  P     -141.041     470.941     -47.650
  C     -139.351     472.711     -46.766
  O     -140.167     472.276     -47.836
  O     -141.684     471.105     -46.200
  O     -142.062     470.667     -48.699
  H     -142.594     471.475     -46.269
  H     -138.913     471.868     -46.218
  H     -139.951     473.320     -46.078
  H     -138.541     473.325     -47.164
  H     -139.934     462.382     -49.796
  H     -140.265     463.838     -50.704
  H     -141.585     462.848     -50.129

 3  4  5  6  7  8  9  10  11  12  23  26  30  31  33  0
 6-311+G(2d,p)
 ****
 35  36  37  38 0
 6-311+G(2d,p)
 ****
 1  2  13  14  15  16  17  18  19  20  21  22  24  25  27  28  29 0
 3-21G
 ****
 32  34  39  40  41  42  43  44  45  46  47  48  49 0
 3-21G
 ****


