%nproc=1
%NoSave
%Mem=1900MB
#P OB98/GEN NMR

erre ene a

0 1
  C      212.697     638.222     -42.920
  O      213.723     639.119     -43.287
  H      212.788     637.314     -43.525
  H      211.715     638.667     -43.108
  H      212.791     637.956     -41.864
  P      213.709     640.566     -42.594
  C      214.768     641.726     -44.666
  O      213.663     641.650     -43.773
  C      214.383     642.549     -45.890
  O      213.310     641.884     -46.609
  C      213.843     643.935     -45.562
  O      214.873     644.861     -45.265
  C      213.112     644.275     -46.850
  O      214.000     644.814     -47.840
  C      212.556     642.905     -47.293
  N      211.123     642.793     -47.032
  C      210.299     642.984     -48.138
  O      210.718     643.238     -49.269
  N      208.949     642.928     -47.893
  C      208.364     642.747     -46.673
  O      207.147     642.758     -46.514
  C      209.288     642.563     -45.540
  C      210.601     642.601     -45.766
  O      215.189     640.701     -42.006
  O      212.668     640.743     -41.537
  H      215.171     640.596     -41.037
  H      214.370     645.632     -47.452
  H      208.335     643.061     -48.681
  H      208.857     642.420     -44.559
  H      211.304     642.483     -44.948
  H      212.722     642.757     -48.364
  H      212.333     645.016     -46.675
  H      213.113     643.874     -44.743
  H      215.250     642.620     -46.554
  H      215.050     640.715     -44.992
  H      215.616     642.175     -44.142
  P      214.937     645.457     -43.774
  C      216.593     647.386     -44.463
  O      215.333     646.999     -43.938
  O      216.267     644.751     -43.233
  O      213.701     645.181     -42.980
  H      216.885     644.538     -43.955
  H      216.656     648.454     -44.489
  H      216.700     646.999     -45.455
  H      217.373     646.997     -43.842

 6  7  8  9  10  11  12  13  14  15  16  27  31  32  33  34  35 0
 6-311+G(2d,p)
 ****
 36  37 0
 6-311+G(2d,p)
 ****
 1  2  3  4  5  17  18  19  20  21  22  23  24  25 0
 3-21G
 ****
 26  28  29  30  38  39  40  41  42  43  44  45 0
 3-21G
 ****


