%nproc=1
%NoSave
%Mem=1900MB
#P OB98/GEN NMR

erre ene a

0 1
  C      168.627      36.228      23.436
  O      168.321      37.536      23.874
  H      167.787      35.848      22.848
  H      168.780      35.569      24.295
  H      169.523      36.235      22.809
  P      169.451      38.293      24.725
  C      169.216      36.739      26.797
  O      169.086      38.054      26.269
  C      168.537      36.662      28.161
  O      168.636      35.312      28.672
  C      169.171      37.550      29.226
  O      168.764      38.901      29.102
  C      168.675      36.882      30.502
  O      167.353      37.317      30.845
  C      168.652      35.397      30.114
  N      170.355      32.686      34.078
  C      169.146      33.220      33.802
  N      168.767      33.917      32.709
  C      169.790      34.029      31.844
  C      171.078      33.544      31.992
  C      171.351      32.838      33.174
  N      172.591      32.324      33.471
  N      171.858      33.902      30.910
  C      171.052      34.582      30.119
  N      169.794      34.678      30.642
  O      169.101      39.838      24.487
  O      170.857      37.972      24.345
  H      166.985      36.642      31.447
  H      169.638      40.185      23.751
  H      168.383      33.072      34.562
  H      171.334      35.027      29.173
  H      167.752      34.888      30.477
  H      169.322      37.113      31.349
  H      170.264      37.469      29.187
  H      167.474      36.901      28.037
  H      170.278      36.497      26.908
  H      168.759      36.030      26.098
  H      172.722      31.849      34.350
  H      173.367      32.524      32.854
  P      169.841      39.982      28.619
  C      170.930      40.154      30.974
  O      170.288      40.831      29.906
  O      168.966      41.016      27.768
  O      170.974      39.423      27.826
  H      169.067      40.843      26.813
  H      171.163      40.853      31.750
  H      171.832      39.702      30.619
  H      170.279      39.397      31.359

 6  7  8  9  10  11  12  13  14  15  25  28  32  33  34  35 0
 6-311+G(2d,p)
 ****
 36  37  40 0
 6-311+G(2d,p)
 ****
 1  2  3  4  5  16  17  18  19  20  21  22  23  24 0
 3-21G
 ****
 26  27  29  30  31  38  39 41  42  43  44  45  46  47  48 0
 3-21G
 ****


