%nproc=1
%NoSave
%Mem=1900MB
#P OB98/GEN NMR

erre ene a

0 1
  C      110.601    -362.030    -201.199
  O      110.127    -361.475    -199.972
  P      111.131    -361.487    -198.717
  C      110.120    -363.700    -197.758
  O      111.257    -363.025    -198.270
  C      110.544    -364.847    -196.829
  O      109.417    -365.234    -195.985
  C      111.032    -366.105    -197.558
  O      112.101    -366.649    -196.770
  C      109.822    -367.023    -197.507
  O      110.181    -368.388    -197.666
  C      109.250    -366.659    -196.131
  N      107.851    -367.058    -195.978
  C      107.606    -368.394    -195.690
  O      108.493    -369.244    -195.642
  N      106.291    -368.735    -195.506
  C      105.218    -367.901    -195.659
  O      104.061    -368.261    -195.479
  C      105.536    -366.525    -196.073
  C      106.819    -366.175    -196.216
  O      110.231    -360.814    -197.583
  O      112.424    -360.793    -199.001
  H      109.292    -361.065    -197.633
  H      111.013    -368.558    -197.179
  H      106.092    -369.694    -195.264
  H      104.709    -365.852    -196.261
  H      107.083    -365.178    -196.544
  H      109.833    -367.140    -195.337
  H      109.120    -366.753    -198.302
  H      111.386    -365.899    -198.569
  H      111.327    -364.472    -196.166
  H      109.532    -364.114    -198.580
  H      109.479    -362.982    -197.234
  P      113.571    -366.710    -197.424
  C      113.501    -369.178    -198.305
  O      113.519    -367.796    -198.600
  O      114.363    -367.481    -196.259
  O      114.175    -365.387    -197.755
  H      113.890    -368.265    -195.932
  H      113.229    -369.728    -199.210
  H      112.774    -369.407    -197.523
  H      114.501    -369.500    -197.988
  H      109.835    -361.957    -201.943
  H      110.856    -363.058    -201.050
  H      111.467    -361.491    -201.523

 3  4  5  6  7  8  9  10  11  12  13  24  28  29  30  31  32 0
 6-311+G(2d,p)
 ****
 33  34 0
 6-311+G(2d,p)
 ****
 1  2  14  15  16  17  18  19  20  21  22  23  25  26  27 0
 3-21G
 ****
 35  36  37  38  39  40  41  42  43  44  45 0
 3-21G
 ****


