%nproc=1
%NoSave
%Mem=1900MB
#P OB98/GEN NMR

erre ene a

0 1
  C     1133.632     -88.928    -888.830
  O     1134.826     -89.679    -889.070
  P     1135.866     -89.311    -890.220
  C     1134.779     -90.648    -892.130
  O     1135.108     -89.357    -891.650
  C     1133.981     -90.531    -893.450
  O     1134.667     -89.741    -894.430
  C     1133.731     -91.902    -894.170
  O     1132.705     -92.613    -893.520
  C     1133.378     -91.401    -895.550
  O     1131.998     -91.019    -895.660
  C     1134.318     -90.194    -895.720
  N     1135.480     -90.498    -896.520
  C     1135.389     -90.318    -897.930
  O     1134.288     -90.009    -898.410
  N     1136.472     -90.537    -898.740
  C     1137.584     -90.971    -898.170
  N     1138.629     -91.159    -899.010
  C     1137.729     -91.238    -896.720
  C     1136.641     -91.003    -895.980
  O     1137.139     -90.097    -890.180
  O     1136.191     -87.740    -890.020
  H     1131.831     -90.409    -894.890
  H     1137.096     -87.565    -890.320
  H     1138.656     -91.647    -896.330
  H     1136.664     -91.151    -894.880
  H     1133.772     -89.365    -896.190
  H     1133.539     -92.186    -896.320
  H     1134.681     -92.449    -894.160
  H     1133.006     -90.043    -893.260
  H     1138.493     -90.987    -900.000
  H     1134.135     -91.143    -891.390
  H     1139.527     -91.512    -898.690
  H     1135.662     -91.222    -892.280
  P     1133.051     -94.069    -892.870
  C     1131.863     -95.359    -894.750
  O     1133.101     -95.099    -894.060
  O     1132.194     -94.467    -891.700
  O     1134.586     -93.939    -892.420
  H     1134.716     -94.474    -891.660
  H     1132.112     -95.734    -895.760
  H     1131.313     -94.403    -894.870
  H     1131.284     -96.102    -894.230
  H     1133.096     -89.362    -888.012
  H     1133.019     -88.943    -889.707
  H     1133.888     -87.917    -888.592

 3  4  5  6  7  8  9  10  11  12  13  23  27  28  29  30  32 0
 6-311+G(2d,p)
 ****
 34  35 0
 6-311+G(2d,p)
 ****
 1  2  14  15  16  17  18  19  20  21  22  24  25  26 0
 3-21G
 ****
 31  33  36  37  38  39  40  41  42  43  44  45  46 0
 3-21G
 ****


