%nproc=1
%NoSave
%Mem=1900MB
#P OB98/GEN NMR

erre ene a

0 1
  C      -48.337    -102.192    -334.744
  O      -49.293    -102.940    -335.497
  P      -50.819    -102.444    -335.528
  C      -51.370    -103.291    -337.900
  O      -51.652    -103.404    -336.512
  C      -51.937    -104.491    -338.669
  O      -51.268    -105.722    -338.265
  C      -53.440    -104.694    -338.423
  O      -54.075    -105.222    -339.598
  C      -53.463    -105.778    -337.359
  O      -54.719    -106.450    -337.318
  C      -52.281    -106.639    -337.805
  N      -53.234    -110.646    -334.759
  C      -53.938    -110.107    -335.779
  N      -53.609    -109.053    -336.558
  C      -52.413    -108.555    -336.208
  C      -51.578    -109.005    -335.197
  C      -52.035    -110.101    -334.441
  N      -51.333    -110.632    -333.385
  N      -50.431    -108.241    -335.127
  C      -50.594    -107.316    -336.052
  N      -51.757    -107.481    -336.753
  O      -51.021    -100.985    -335.752
  O      -51.360    -102.884    -334.083
  H      -54.721    -107.017    -336.524
  H      -51.920    -102.167    -333.721
  H      -54.891    -110.580    -335.993
  H      -49.909    -106.500    -336.243
  H      -52.550    -107.289    -338.648
  H      -53.278    -105.333    -336.373
  H      -53.973    -103.792    -338.105
  H      -51.738    -104.354    -339.740
  H      -50.290    -103.227    -338.051
  H      -51.791    -111.340    -332.831
  H      -50.516    -110.144    -333.046
  H      -51.783    -102.347    -338.274
  P      -55.360    -104.405    -340.130
  C      -54.902    -104.967    -342.643
  O      -55.753    -105.082    -341.527
  O      -55.158    -102.925    -340.145
  O      -56.503    -104.887    -339.118
  H      -56.570    -105.853    -339.011
  H      -55.284    -105.596    -343.449
  H      -53.887    -105.294    -342.397
  H      -54.879    -103.925    -342.992
  H      -47.376    -102.654    -334.828
  H      -48.632    -102.168    -333.716
  H      -48.287    -101.193    -335.124

 3  4  5  6  7  8  9  10  11  12  22  25  29  30  31  32 0
 6-311+G(2d,p)
 ****
 33  36  37 0
 6-311+G(2d,p)
 ****
 1  2  13  14  15  16  17  18  19  20  21  23  24  26 0
 3-21G
 ****
 27  28  34  35  38  39  40  41  42  43  44  45  46  47  48 0
 3-21G
 ****


