%nproc=1
%NoSave
%Mem=1900MB
#P OB98/GEN NMR

erre ene a

0 1
  C     -891.110    -893.044     357.965
  O     -892.430    -893.484     358.225
  H     -891.010    -891.994     358.248
  H     -890.420    -893.624     358.572
  H     -890.860    -893.174     356.906
  P     -893.590    -892.874     357.309
  C     -893.820    -895.144     356.089
  O     -893.610    -893.744     355.964
  C     -894.460    -895.704     354.810
  O     -895.830    -895.264     354.742
  C     -893.740    -895.244     353.540
  O     -893.710    -896.324     352.581
  C     -894.630    -894.114     353.018
  O     -894.490    -893.934     351.620
  C     -895.990    -894.624     353.456
  N     -898.640    -891.134     350.780
  C     -897.840    -892.164     350.394
  N     -897.160    -893.034     351.166
  C     -897.440    -892.834     352.442
  C     -898.250    -891.834     353.024
  C     -898.850    -890.954     352.088
  N     -899.640    -889.894     352.489
  N     -898.250    -891.904     354.418
  C     -897.470    -892.974     354.674
  N     -896.950    -893.544     353.526
  O     -892.950    -891.474     356.827
  O     -894.910    -892.644     357.974
  H     -893.600    -893.554     351.416
  H     -893.030    -890.814     357.533
  H     -897.700    -892.254     349.322
  H     -897.260    -893.324     355.661
  H     -896.440    -895.354     352.754
  H     -894.380    -893.194     353.510
  H     -892.720    -894.884     353.724
  H     -894.480    -896.804     354.874
  H     -894.500    -895.344     356.929
  H     -900.000    -889.284     351.796
  H     -899.760    -889.704     353.463
  H     -892.880    -895.654     356.304
  P     -892.270    -896.964     352.344
  C     -893.020    -899.244     353.330
  O     -892.050    -898.214     353.362
  O     -891.230    -895.874     352.841
  O     -892.060    -897.314     350.865
  H     -890.570    -895.724     352.183
  H     -892.761    -900.000     354.041
  H     -893.053    -899.672     352.350
  H     -893.979    -898.838     353.575

 6  7  8  9  10  11  12  13  14  15  25  28  32  33  34  35 0
 6-311+G(2d,p)
 ****
 36  39  40 0
 6-311+G(2d,p)
 ****
 1  2  3  4  5  16  17  18  19  20  21  22  23  24 0
 3-21G
 ****
 26  27  29  30  31  37  38  41  42  43  44  45  46  47 0
 3-21G
 ****
 48 0
 3-21G
 ****


