%nproc=1
%NoSave
%Mem=1900MB
#P OB98/GEN NMR

erre ene a

0 1
  C       36.318    -135.110    -364.882
  O       36.657    -136.400    -364.417
  P       36.437    -137.668    -365.360
  C       34.465    -138.819    -366.545
  O       34.856    -137.862    -365.568
  C       32.960    -139.092    -366.444
  O       32.224    -137.845    -366.485
  C       32.410    -139.930    -367.595
  O       32.740    -141.291    -367.434
  C       30.925    -139.619    -367.496
  O       30.298    -140.417    -366.478
  C       30.933    -138.134    -367.067
  N       27.407    -136.415    -370.343
  C       27.389    -137.434    -369.442
  N       28.390    -137.852    -368.641
  C       29.501    -137.122    -368.833
  C       29.670    -136.070    -369.732
  C       28.553    -135.707    -370.493
  N       28.526    -134.633    -371.353
  N       30.965    -135.587    -369.656
  C       31.560    -136.336    -368.741
  N       30.688    -137.224    -368.174
  O       37.177    -138.908    -364.963
  O       36.925    -137.160    -366.802
  H       29.339    -140.219    -366.502
  H       37.671    -137.720    -367.112
  H       26.459    -137.986    -369.369
  H       32.597    -136.252    -368.448
  H       30.186    -137.928    -366.295
  H       30.386    -139.802    -368.431
  H       32.796    -139.549    -368.551
  H       32.765    -139.581    -365.482
  H       35.017    -139.747    -366.369
  H       27.632    -134.375    -371.736
  H       29.257    -133.921    -371.254
  H       34.723    -138.437    -367.545
  P       32.194    -142.381    -368.474
  C       29.894    -143.296    -369.141
  O       30.634    -142.571    -368.174
  O       32.994    -143.638    -368.579
  O       32.191    -141.585    -369.875
  H       32.379    -142.208    -370.599
  H       29.682    -142.641    -369.995
  H       28.947    -143.623    -368.697
  H       30.442    -144.178    -369.479
  H       36.532    -134.389    -364.121
  H       35.275    -135.079    -365.120
  H       36.890    -134.885    -365.758

 3  4  5  6  7  8  9  10  11  12  22  25  29  30  31  32 0
 6-311+G(2d,p)
 ****
 33  36  37 0
 6-311+G(2d,p)
 ****
 1  2  13  14  15  16  17  18  19  20  21  23  24  26 0
 3-21G
 ****
 27  28  34  35  38  39  40  41  42  43  44  45  46  47  48 0
 3-21G
 ****


