%nproc=1
%NoSave
%Mem=1900MB
#P OB98/GEN NMR

erre ene a

0 1
  C      293.366      88.283    -315.687
  O      293.390      87.108    -314.876
  P      293.534      87.327    -313.291
  C      296.003      86.693    -312.795
  O      295.059      87.738    -312.970
  C      297.064      87.047    -311.744
  O      297.857      88.189    -312.168
  C      296.474      87.384    -310.372
  O      297.399      86.937    -309.379
  C      296.467      88.909    -310.373
  O      296.406      89.424    -309.044
  C      297.768      89.195    -311.132
  N      297.815      90.547    -311.696
  C      298.459      91.531    -310.938
  O      298.895      91.256    -309.817
  N      298.560      92.805    -311.439
  C      298.015      93.083    -312.589
  N      298.153      94.364    -313.035
  C      297.273      92.097    -313.398
  C      297.219      90.862    -312.894
  O      293.406      85.846    -312.696
  O      292.505      88.234    -312.711
  H      296.521      90.400    -309.087
  H      292.760      85.831    -311.965
  H      296.815      92.386    -314.334
  H      296.694      90.070    -313.419
  H      298.636      89.075    -310.477
  H      295.592      89.288    -310.935
  H      295.489      86.941    -310.199
  H      297.749      86.193    -311.648
  H      298.676      95.005    -312.453
  H      296.499      86.475    -313.748
  H      297.761      94.698    -313.908
  H      295.469      85.768    -312.521
  P      296.994      85.676    -308.470
  C      296.359      87.386    -306.653
  O      295.934      86.265    -307.412
  O      298.305      85.507    -307.556
  O      296.628      84.396    -309.146
  H      298.203      84.713    -306.988
  H      295.510      87.756    -306.074
  H      296.706      88.189    -307.324
  H      297.161      87.097    -305.968
  H      293.267      88.005    -316.715
  H      294.276      88.829    -315.551
  H      292.537      88.896    -315.402

 3  4  5  6  7  8  9  10  11  12  13  21  23  27  28  29  30  32 0
 6-311+G(2d,p)
 ****
 34  35 0
 6-311+G(2d,p)
 ****
 1  2  14  15  16  17  18  19  20  22  24  25  26 0
 3-21G
 ****
 31  33  36  37  38  39  40  41  42  43  44  45  46 0
 3-21G
 ****


