%nproc=1
%NoSave
%Mem=1900MB
#P OB98/GEN NMR

erre ene a

0 1
  C     -560.048     505.994    -549.405
  O     -561.124     505.078    -549.315
  H     -559.525     505.826    -550.349
  H     -559.353     505.829    -548.577
  H     -560.423     507.029    -549.384
  P     -562.130     505.268    -548.080
  C     -563.756     503.670    -549.391
  O     -563.188     504.057    -548.148
  C     -564.161     502.195    -549.339
  O     -565.150     501.958    -548.319
  C     -564.830     501.705    -550.618
  O     -563.934     501.582    -551.698
  C     -565.405     500.381    -550.130
  O     -564.387     499.366    -550.084
  C     -565.870     500.759    -548.698
  N     -567.308     500.939    -548.615
  C     -568.074     499.772    -548.765
  O     -567.527     498.687    -548.945
  N     -569.443     499.869    -548.740
  C     -569.996     501.028    -548.544
  N     -571.367     501.070    -548.539
  C     -569.236     502.273    -548.345
  C     -567.911     502.158    -548.405
  O     -563.007     506.530    -548.534
  O     -561.480     505.413    -546.743
  H     -564.777     498.614    -549.596
  H     -563.410     506.427    -549.410
  H     -569.742     503.219    -548.185
  H     -567.276     503.020    -548.270
  H     -565.576     499.972    -547.982
  H     -566.200     500.008    -550.782
  H     -565.675     502.356    -550.880
  H     -563.272     501.610    -549.096
  H     -571.860     500.196    -548.697
  H     -563.055     503.848    -550.211
  H     -571.905     501.915    -548.429
  H     -564.638     504.303    -549.556
  P     -564.274     502.219    -553.118
  C     -561.742     502.158    -553.552
  O     -563.030     501.876    -554.079
  O     -564.663     503.667    -553.101
  O     -565.419     501.253    -553.694
  H     -565.144     500.323    -553.792
  H     -560.996     501.892    -554.272
  H     -561.591     501.592    -552.657
  H     -561.668     503.202    -553.331

 6  7  8  9  10  11  12  13  14  15  16  26  30  31  32  33  35 0
 6-311+G(2d,p)
 ****
 37  38 0
 6-311+G(2d,p)
 ****
 1  2  3  4  5  17  18  19  20  21  22  23  24  25 0
 3-21G
 ****
 27  28  29  34  36  39  40  41  42  43  44  45  46 0
 3-21G
 ****


