%nproc=1
%NoSave
%Mem=1900MB
#P OB98/GEN NMR

erre ene a

0 1
  C     -206.323     344.677     -45.416
  O     -206.308     343.385     -44.844
  H     -207.107     345.268     -44.933
  H     -206.543     344.613     -46.486
  H     -205.360     345.173     -45.264
  P     -205.192     342.366     -45.391
  C     -203.565     343.155     -43.520
  O     -203.776     342.951     -44.914
  C     -202.655     342.058     -42.972
  O     -201.567     341.826     -43.899
  C     -201.992     342.400     -41.643
  O     -202.873     342.217     -40.548
  C     -200.813     341.435     -41.641
  O     -201.195     340.134     -41.179
  C     -200.431     341.372     -43.126
  N     -195.424     341.886     -42.314
  C     -196.309     340.933     -41.936
  N     -197.629     340.863     -42.213
  C     -198.010     341.904     -42.968
  C     -197.226     342.954     -43.420
  C     -195.864     342.920     -43.068
  N     -194.973     343.903     -43.420
  N     -197.989     343.859     -44.132
  C     -199.213     343.368     -44.115
  N     -199.270     342.187     -43.427
  O     -205.205     342.639     -46.970
  O     -205.431     340.929     -45.068
  H     -201.881     339.809     -41.793
  H     -205.791     341.994     -47.408
  H     -195.903     340.127     -41.332
  H     -200.080     343.825     -44.572
  H     -200.209     340.351     -43.454
  H     -200.011     341.788     -40.990
  H     -201.609     343.430     -41.661
  H     -203.236     341.129     -42.890
  H     -204.530     343.119     -43.000
  H     -203.113     344.141     -43.372
  H     -194.016     343.825     -43.114
  H     -195.315     344.734     -43.893
  P     -202.535     342.947     -39.163
  C     -203.245     345.299     -40.019
  O     -202.210     344.484     -39.491
  O     -201.113     342.331     -38.762
  O     -203.556     342.745     -38.087
  H     -201.220     341.633     -38.093
  H     -202.872     346.288     -40.182
  H     -204.059     345.335     -39.326
  H     -203.584     344.888     -40.947

 6  7  8  9  10  11  12  13  14  15  25  28  32  33  34  35 0
 6-311+G(2d,p)
 ****
 36  37  40 0
 6-311+G(2d,p)
 ****
 1  2  3  4  5  16  17  18  19  20  21  22  23  24 0
 3-21G
 ****
 26  27  29  30  31  38  39 41  42  43  44  45  46  47  48 0
 3-21G
 ****


