%nproc=1
%NoSave
%Mem=1900MB
#P OB98/GEN NMR

erre ene a

0 1
  C      267.751    -788.120     355.185
  O      268.740    -787.599     354.323
  P      269.508    -786.226     354.601
  C      268.742    -783.803     355.114
  O      268.458    -785.014     354.445
  C      267.507    -782.910     355.306
  O      266.483    -783.660     356.001
  C      267.835    -781.714     356.204
  O      268.439    -780.557     355.647
  C      266.579    -781.450     357.016
  O      265.782    -780.405     356.467
  C      265.832    -782.789     356.944
  N      264.261    -782.519     361.764
  C      263.934    -781.705     360.689
  N      263.241    -780.585     360.993
  N      264.264    -781.973     359.450
  C      265.032    -783.092     359.319
  C      265.408    -783.977     360.301
  C      265.002    -783.696     361.660
  O      265.354    -784.332     362.650
  N      266.251    -784.947     359.816
  C      266.399    -784.631     358.545
  N      265.718    -783.482     358.210
  O      270.859    -786.082     353.978
  O      269.718    -786.291     356.202
  H      266.373    -779.677     356.192
  H      270.572    -785.864     356.407
  H      264.053    -782.228     362.703
  H      267.031    -785.162     357.834
  H      264.801    -782.635     356.565
  H      266.829    -781.148     358.037
  H      263.105    -780.274     361.936
  H      268.587    -782.061     356.937
  H      263.132    -779.892     360.259
  H      267.066    -782.628     354.346
  H      269.505    -783.265     354.525
  H      269.189    -784.007     356.095
  P      269.467    -779.571     356.376
  C      269.418    -777.993     358.391
  O      268.647    -778.650     357.397
  O      269.907    -778.537     355.241
  O      270.676    -780.245     356.959
  H      270.772    -778.128     355.466
  H      268.749    -777.649     359.191
  H      269.914    -777.121     357.962
  H      270.176    -778.673     358.818
  H      267.384    -789.044     354.790
  H      266.944    -787.422     355.266
  H      268.175    -788.289     356.153

 3  4  5  6  7  8  9  10  11  12  23  26  30  31 0
 6-311+G(2d,p)
 ****
 33  35  36  37  38 0
 6-311+G(2d,p)
 ****
 1  2  13  14  15  16  17  18  19  20  21  22  24  25 0
 3-21G
 ****
 27  28  29  32  34  39  40  41  42  43  44  45  46  47  48  49 0
 3-21G
 ****


