%nproc=1
%NoSave
%Mem=1900MB
#P OB98/GEN NMR

erre ene a

0 1
  C     -108.700     219.741      16.171
  O     -107.976     220.675      15.366
  P     -107.205     221.846      16.154
  C     -107.822     224.126      17.226
  O     -108.256     223.022      16.445
  C     -108.706     225.350      16.970
  O     -108.549     225.869      15.637
  C     -110.193     225.065      17.138
  O     -110.536     225.069      18.513
  C     -110.815     226.221      16.363
  O     -110.911     227.408      17.176
  C     -109.818     226.437      15.215
  N     -113.065     226.721      11.330
  C     -113.062     227.404      12.533
  N     -114.050     228.301      12.719
  N     -112.167     227.215      13.469
  C     -111.238     226.285      13.147
  C     -111.120     225.569      11.978
  C     -112.118     225.780      10.951
  O     -112.148     225.225       9.860
  N     -110.007     224.765      11.994
  C     -109.532     224.901      13.218
  N     -110.203     225.862      13.938
  O     -106.230     222.460      15.044
  O     -106.445     221.357      17.346
  H     -111.264     227.168      18.050
  H     -105.304     222.230      15.254
  H     -113.781     226.898      10.646
  H     -108.694     224.350      13.622
  H     -109.648     227.504      15.027
  H     -111.835     225.990      16.038
  H     -114.769     228.498      12.040
  H     -110.450     224.111      16.665
  H     -114.064     228.814      13.593
  H     -108.395     226.132      17.676
  H     -106.783     224.365      16.991
  H     -107.847     223.840      18.283
  P     -111.233     223.756      19.115
  C     -113.636     222.776      19.157
  O     -112.785     223.820      18.732
  O     -111.214     224.023      20.693
  O     -110.541     222.475      18.774
  H     -110.938     223.210      21.158
  H     -114.643     223.178      19.301
  H     -113.294     222.336      20.098
  H     -113.671     222.002      18.386
  H     -109.168     219.014      15.540
  H     -109.448     220.260      16.733
  H     -108.026     219.250      16.842

 3  4  5  6  7  8  9  10  11  12  23  26  30  31 0
 6-311+G(2d,p)
 ****
 33  35  36  37  38 0
 6-311+G(2d,p)
 ****
 1  2  13  14  15  16  17  18  19  20  21  22  24  25 0
 3-21G
 ****
 27  28  29  32  34  39  40  41  42  43  44  45  46  47  48  49 0
 3-21G
 ****


