%nproc=1
%NoSave
%Mem=1900MB
#P OB98/GEN NMR

erre ene a

0 1
  C      769.258    -359.297    -195.841
  O      768.205    -359.049    -196.774
  P      766.699    -359.416    -196.342
  C      765.458    -357.892    -194.667
  O      765.922    -358.050    -196.010
  C      765.334    -356.400    -194.308
  O      766.633    -355.757    -194.487
  C      764.353    -355.609    -195.187
  O      762.994    -355.541    -194.783
  C      764.912    -354.183    -195.050
  O      764.424    -353.584    -193.834
  C      766.425    -354.399    -194.940
  N      769.605    -351.285    -197.467
  C      769.081    -351.227    -196.220
  N      768.249    -352.101    -195.624
  C      767.950    -353.122    -196.447
  C      768.402    -353.315    -197.742
  C      769.266    -352.332    -198.261
  N      769.790    -352.378    -199.532
  N      767.881    -354.467    -198.274
  C      767.112    -354.963    -197.317
  N      767.131    -354.192    -196.190
  O      766.561    -360.491    -195.322
  O      766.044    -359.852    -197.730
  H      764.735    -352.661    -193.839
  H      765.431    -360.590    -197.573
  H      769.390    -350.376    -195.622
  H      766.518    -355.866    -197.404
  H      766.882    -353.745    -194.197
  H      764.611    -353.534    -195.870
  H      764.422    -355.925    -196.231
  H      765.046    -356.307    -193.249
  H      766.161    -358.374    -193.988
  H      770.359    -351.615    -199.837
  H      769.496    -353.122    -200.156
  H      764.512    -358.424    -194.578
  P      761.843    -356.291    -195.623
  C      761.356    -358.833    -196.039
  O      761.986    -357.847    -195.249
  O      761.839    -356.001    -197.095
  O      760.511    -355.849    -194.867
  H      760.418    -356.221    -193.966
  H      761.745    -359.811    -195.749
  H      761.585    -358.669    -197.106
  H      760.274    -358.814    -195.882
  H      770.192    -359.003    -196.271
  H      769.287    -360.340    -195.605
  H      769.084    -358.734    -194.948

 3  4  5  6  7  8  9  10  11  12  22  25  29  30  31  32 0
 6-311+G(2d,p)
 ****
 33  36  37 0
 6-311+G(2d,p)
 ****
 1  2  13  14  15  16  17  18  19  20  21  23  24  26 0
 3-21G
 ****
 27  28  34  35  38  39  40  41  42  43  44  45  46  47  48 0
 3-21G
 ****


