%nproc=1
%NoSave
%Mem=1900MB
#P OB98/GEN NMR

erre ene a

0 1
  C      298.090     187.934    -528.845
  O      299.472     187.723    -529.009
  H      297.711     187.228    -528.099
  H      297.555     187.764    -529.785
  H      297.895     188.950    -528.485
  P      300.260     188.595    -530.101
  C      301.449     189.700    -528.092
  O      300.802     189.902    -529.345
  C      301.849     191.046    -527.476
  O      302.674     191.744    -528.443
  C      300.636     191.929    -527.151
  O      300.639     192.395    -525.801
  C      300.647     192.959    -528.268
  O      300.032     194.188    -527.935
  C      302.131     193.065    -528.640
  N      302.368     193.524    -530.002
  C      301.771     194.720    -530.388
  O      301.065     195.429    -529.666
  N      302.013     195.120    -531.677
  C      302.764     194.443    -532.600
  O      302.941     194.848    -533.746
  C      303.345     193.172    -532.143
  C      303.128     192.775    -530.879
  O      299.515     188.870    -531.363
  O      301.598     187.756    -530.376
  H      300.034     194.745    -528.739
  H      301.527     187.310    -531.246
  H      301.600     195.989    -531.961
  H      303.937     192.608    -532.848
  H      303.542     191.845    -530.512
  H      302.647     193.749    -527.963
  H      300.090     192.552    -529.126
  H      299.707     191.346    -527.209
  H      302.464     190.858    -526.587
  H      302.337     189.081    -528.266
  H      300.773     189.170    -527.411
  P      300.348     191.490    -524.518
  C      302.904     191.439    -523.888
  O      301.696     190.722    -524.130
  O      299.095     190.674    -524.559
  O      300.187     192.562    -523.325
  H      299.545     192.181    -522.694
  H      303.685     190.750    -523.645
  H      302.759     192.116    -523.073
  H      303.174     191.989    -524.765

 6  7  8  9  10  11  12  13  14  15  16  26  31  32  33  34  35 0
 6-311+G(2d,p)
 ****
 36  37 0
 6-311+G(2d,p)
 ****
 1  2  3  4  5  17  18  19  20  21  22  23  24  25 0
 3-21G
 ****
 27  28  29  30  38  39  40  41  42  43  44  45 0
 3-21G
 ****


