%nproc=1
%NoSave
%Mem=1900MB
#P OB98/GEN NMR

erre ene a

0 1
  C      702.595    -897.240     519.369
  O      701.705    -896.170     519.642
  H      702.781    -897.770     520.300
  H      703.547    -896.840     519.000
  H      702.162    -897.920     518.630
  P      701.133    -895.310     518.412
  C      698.797    -894.680     517.485
  O      699.526    -895.320     518.535
  C      697.301    -894.770     517.774
  O      696.863    -896.140     517.816
  C      696.914    -894.190     519.135
  O      696.905    -892.760     519.103
  C      695.542    -894.810     519.343
  O      694.535    -894.100     518.621
  C      695.766    -896.230     518.756
  N      696.017    -897.260     519.774
  C      695.028    -898.210     519.947
  O      693.990    -898.230     519.296
  N      695.289    -899.160     520.902
  C      696.348    -899.160     521.756
  O      696.489    -900.000     522.662
  C      697.347    -898.100     521.554
  C      697.140    -897.220     520.601
  O      701.668    -895.660     517.066
  O      701.507    -893.800     518.814
  H      694.530    -893.190     518.986
  H      702.271    -893.510     518.281
  H      694.588    -899.870     521.050
  H      698.201    -898.080     522.219
  H      697.865    -896.420     520.428
  H      694.886    -896.540     518.176
  H      695.252    -894.830     520.387
  H      697.592    -894.550     519.918
  H      696.753    -894.260     516.975
  H      699.013    -895.230     516.549
  H      699.128    -893.640     517.392
  P      697.154    -891.940     520.445
  C      698.107    -889.640     521.074
  O      698.054    -890.660     520.092
  O      697.622    -892.740     521.629
  O      695.707    -891.290     520.762
  H      695.393    -891.590     521.621
  H      698.733    -888.844     520.728
  H      698.507    -890.040     521.982
  H      697.121    -889.266     521.253

 6  7  8  9  10  11  12  13  14  15  16  26  31  32  33  34  35 0
 6-311+G(2d,p)
 ****
 36  37 0
 6-311+G(2d,p)
 ****
 1  2  3  4  5  17  18  19  20  21  22  23  24  25 0
 3-21G
 ****
 27  28  29  30  38  39  40  41  42  43  44  45 0
 3-21G
 ****


