%nproc=1
%NoSave
%Mem=1900MB
#P OB98/GEN NMR

erre ene a

0 1
  C      806.103    -398.618     -56.271
  O      806.972    -398.940     -55.192
  P      807.589    -397.780     -54.266
  C      806.022    -398.091     -52.228
  O      806.364    -397.286     -53.353
  C      806.572    -397.457     -50.956
  O      806.007    -396.140     -50.786
  C      806.233    -398.216     -49.681
  O      807.057    -399.368     -49.542
  C      806.448    -397.134     -48.628
  O      807.851    -396.979     -48.342
  C      805.925    -395.878     -49.362
  N      804.569    -395.517     -48.970
  C      804.436    -394.719     -47.832
  O      805.428    -394.332     -47.207
  N      803.174    -394.328     -47.439
  C      802.138    -394.720     -48.110
  N      800.923    -394.259     -47.714
  C      802.230    -395.613     -49.284
  C      803.462    -395.965     -49.659
  O      808.292    -396.691     -55.007
  O      808.510    -398.554     -53.216
  H      808.135    -397.795     -47.883
  H      809.438    -398.691     -53.529
  H      801.327    -395.928     -49.799
  H      803.611    -396.596     -50.523
  H      806.584    -395.025     -49.167
  H      805.938    -397.333     -47.684
  H      805.183    -398.527     -49.683
  H      807.661    -397.351     -51.066
  H      800.926    -393.514     -47.024
  H      806.475    -399.079     -52.359
  H      800.119    -394.278     -48.335
  H      804.933    -398.195     -52.184
  P      806.330    -400.772     -49.274
  C      806.189    -401.301     -51.802
  O      805.482    -401.090     -50.601
  O      805.228    -400.415     -48.174
  O      807.249    -401.868     -48.823
  H      805.529    -400.684     -47.283
  H      805.501    -401.737     -52.540
  H      807.024    -401.998     -51.650
  H      806.566    -400.354     -52.190
  H      805.799    -399.517     -56.765
  H      806.616    -397.986     -56.965
  H      805.240    -398.109     -55.895

 3  4  5  6  7  8  9  10  11  12  13  23  27  28  29  30  32 0
 6-311+G(2d,p)
 ****
 34  35 0
 6-311+G(2d,p)
 ****
 1  2  14  15  16  17  18  19  20  21  22  24  25  26 0
 3-21G
 ****
 31  33  36  37  38  39  40  41  42  43  44  45  46 0
 3-21G
 ****


