%nproc=1
%NoSave
%Mem=1900MB
#P OB98/GEN NMR

erre ene a

0 1
  C     -106.400      66.548    -558.933
  O     -107.021      66.554    -560.201
  H     -106.936      65.881    -558.253
  H     -105.373      66.188    -559.044
  H     -106.374      67.560    -558.518
  P     -108.551      67.039    -560.239
  C     -109.642      64.849    -561.085
  O     -109.457      65.734    -559.990
  C     -110.794      63.893    -560.801
  O     -110.887      62.953    -561.903
  C     -110.635      63.087    -559.496
  O     -111.825      63.176    -558.704
  C     -110.469      61.654    -559.965
  O     -111.057      60.709    -559.078
  C     -111.153      61.666    -561.327
  N     -112.262      57.084    -563.274
  C     -113.054      58.055    -562.771
  N     -112.710      59.292    -562.359
  C     -111.393      59.503    -562.538
  C     -110.464      58.616    -563.061
  C     -110.939      57.346    -563.424
  N     -110.125      56.339    -563.885
  N     -109.201      59.187    -563.085
  C     -109.360      60.376    -562.543
  N     -110.662      60.604    -562.182
  O     -108.790      67.379    -561.786
  O     -108.852      68.213    -559.368
  H     -110.679      59.836    -559.292
  H     -109.020      68.323    -561.870
  H     -114.109      57.802    -562.681
  H     -108.564      61.085    -562.346
  H     -112.242      61.556    -561.236
  H     -109.401      61.429    -560.056
  H     -109.778      63.416    -558.901
  H     -111.730      64.466    -560.783
  H     -108.722      64.266    -561.244
  H     -110.531      55.424    -564.008
  H     -109.126      56.493    -563.893
  H     -109.842      65.435    -561.987
  P     -111.810      64.271    -557.523
  C     -111.800      62.710    -555.444
  O     -111.069      63.625    -556.256
  O     -113.349      64.346    -557.080
  O     -111.303      65.607    -557.950
  H     -113.671      65.266    -557.150
  H     -111.177      62.367    -554.644
  H     -112.111      61.876    -556.038
  H     -112.661      63.201    -555.040

 6  7  8  9  10  11  12  13  14  15  25  28  32  33  34  35 0
 6-311+G(2d,p)
 ****
 36  39  40 0
 6-311+G(2d,p)
 ****
 1  2  3  4  5  16  17  18  19  20  21  22  23  24 0
 3-21G
 ****
 26  27  29  30  31  37  38  41  42  43  44  45  46  47  48 0
 3-21G
 ****


