%nproc=1
%NoSave
%Mem=1900MB
#P OB98/GEN NMR

erre ene a

0 1
  C     -427.804     716.150     526.755
  O     -428.724     716.143     525.652
  P     -429.598     714.821     525.364
  C     -431.783     715.659     524.197
  O     -431.151     715.219     525.391
  C     -431.683     717.180     524.079
  O     -430.299     717.593     524.015
  C     -432.328     717.755     522.829
  O     -433.739     717.809     522.935
  C     -431.674     719.135     522.761
  O     -432.349     720.065     523.622
  C     -430.254     718.838     523.281
  N     -429.257     718.797     522.217
  C     -429.086     719.963     521.485
  O     -429.759     720.976     521.660
  N     -428.128     719.917     520.508
  C     -427.388     718.825     520.157
  O     -426.556     718.843     519.260
  C     -427.674     717.596     520.911
  C     -428.586     717.638     521.886
  O     -429.439     714.017     526.745
  O     -429.146     713.986     524.212
  H     -432.363     719.660     524.513
  H     -429.524     713.061     526.575
  H     -427.964     720.764     519.987
  H     -427.127     716.698     520.649
  H     -428.805     716.737     522.455
  H     -429.953     719.601     524.010
  H     -431.696     719.559     521.752
  H     -432.026     717.175     521.951
  H     -432.126     717.625     524.982
  H     -432.839     715.372     524.222
  H     -431.306     715.172     523.342
  P     -434.558     716.610     522.247
  C     -435.608     715.684     524.455
  O     -434.707     715.492     523.388
  O     -433.459     716.027     521.240
  O     -435.823     717.057     521.595
  H     -432.556     716.108     521.595
  H     -436.491     716.245     524.141
  H     -435.103     716.221     525.263
  H     -435.926     714.704     524.826
  H     -427.310     717.098     526.802
  H     -427.078     715.376     526.619
  H     -428.339     715.981     527.666

 3  4  5  6  7  8  9  10  11  12  13  23  28  29  30  31  32 0
 6-311+G(2d,p)
 ****
 33  34 0
 6-311+G(2d,p)
 ****
 1  2  14  15  16  17  18  19  20  21  22  24  25  26 0
 3-21G
 ****
 27  35  36  37  38  39  40  41  42  43  44  45 0
 3-21G
 ****


