%nproc=1
%NoSave
%Mem=1900MB
#P OB98/GEN NMR

erre ene a

0 1
  C        4.408     882.907    -154.271
  O        4.214     882.478    -152.934
  P        3.436     883.394    -151.872
  C        1.094     882.333    -151.890
  O        1.914     883.392    -152.372
  C        0.075     882.875    -150.887
  O       -0.623     883.982    -151.496
  C       -1.024     881.899    -150.462
  O       -0.662     881.024    -149.405
  C       -2.089     882.874    -149.966
  O       -1.753     883.332    -148.644
  C       -1.970     884.021    -150.975
  N       -6.935     883.829    -152.206
  C       -6.300     883.989    -151.020
  N       -4.977     884.009    -150.773
  C       -4.279     883.888    -151.914
  C       -4.784     883.725    -153.195
  C       -6.183     883.700    -153.319
  N       -6.822     883.558    -154.530
  N       -3.759     883.620    -154.111
  C       -2.656     883.726    -153.400
  N       -2.920     883.901    -152.068
  O        4.042     884.732    -151.650
  O        3.386     882.503    -150.545
  H       -1.642     882.541    -148.084
  H        3.169     883.060    -149.778
  H       -6.946     884.108    -150.153
  H       -1.656     883.682    -153.801
  H       -2.113     885.003    -150.510
  H       -3.082     882.418    -149.904
  H       -1.419     881.340    -151.327
  H        0.614     883.253    -150.013
  H        1.739     881.605    -151.384
  H       -7.822     883.682    -154.542
  H       -6.270     883.630    -155.372
  H        0.601     881.838    -152.723
  P       -0.977     879.459    -149.607
  C        1.543     879.039    -150.199
  O        0.187     878.912    -150.571
  O       -2.370     879.153    -150.045
  O       -0.600     878.837    -148.183
  H        0.340     878.864    -147.952
  H        2.153     878.461    -150.897
  H        1.708     878.653    -149.189
  H        1.848     880.088    -150.243
  H        4.945     882.156    -154.812
  H        4.968     883.819    -154.275
  H        3.458     883.069    -154.735

 3  4  5  6  7  8  9  10  11  12  22  25  29  30  31  32 0
 6-311+G(2d,p)
 ****
 33  36  37 0
 6-311+G(2d,p)
 ****
 1  2  13  14  15  16  17  18  19  20  21  23  24  26 0
 3-21G
 ****
 27  28  34  35  38  39  40  41  42  43  44  45  46  47  48 0
 3-21G
 ****


