%nproc=1
%NoSave
%Mem=1900MB
#P OB98/GEN NMR

erre ene a

0 1
  C       71.976    -118.399     330.992
  O       72.077    -117.449     329.949
  P       71.315    -117.674     328.560
  C       72.659    -119.700     327.748
  O       72.366    -118.326     327.531
  C       73.843    -120.158     326.896
  O       74.152    -121.541     327.218
  C       73.608    -120.083     325.379
  O       74.867    -119.751     324.782
  C       73.235    -121.514     325.024
  O       73.421    -121.811     323.647
  C       74.154    -122.275     325.972
  N       75.629    -127.161     326.307
  C       76.311    -126.036     326.010
  N       75.843    -124.775     325.913
  C       74.522    -124.736     326.171
  C       73.684    -125.805     326.458
  C       74.295    -127.072     326.542
  N       73.619    -128.224     326.877
  N       72.381    -125.371     326.599
  C       72.430    -124.070     326.400
  N       73.715    -123.633     326.203
  O       70.581    -116.485     328.034
  O       70.309    -118.883     328.862
  H       74.267    -121.417     323.358
  H       69.395    -118.544     328.931
  H       77.375    -126.165     325.828
  H       71.582    -123.401     326.388
  H       75.189    -122.312     325.605
  H       72.178    -121.688     325.267
  H       72.838    -119.361     325.082
  H       74.717    -119.556     327.176
  H       71.773    -120.282     327.476
  H       74.174    -129.048     327.041
  H       72.703    -128.148     327.309
  H       72.872    -119.871     328.813
  P       74.974    -118.514     323.768
  C       73.730    -119.492     321.755
  O       74.991    -119.128     322.292
  O       76.063    -117.535     324.068
  O       73.523    -117.832     323.859
  H       73.569    -116.920     323.504
  H       73.432    -120.468     322.154
  H       73.809    -119.560     320.669
  H       72.965    -118.750     322.010
  H       72.553    -118.070     331.831
  H       72.348    -119.343     330.652
  H       70.951    -118.503     331.282

 3  4  5  6  7  8  9  10  11  12  22  25  29  30  31  32 0
 6-311+G(2d,p)
 ****
 33  36  37 0
 6-311+G(2d,p)
 ****
 1  2  13  14  15  16  17  18  19  20  21  23  24  26 0
 3-21G
 ****
 27  28  34  35  38  39  40  41  42  43  44  45  46  47  48 0
 3-21G
 ****


