%nproc=1
%NoSave
%Mem=1900MB
#P OB98/GEN NMR

erre ene a

0 1
  C       80.754    -279.591      39.813
  O       80.458    -280.861      40.353
  H       80.749    -279.663      38.721
  H       81.748    -279.271      40.139
  H       80.006    -278.855      40.120
  P       80.216    -280.931      41.939
  C       82.716    -281.494      42.349
  O       81.629    -280.622      42.631
  C       83.955    -281.059      43.127
  O       84.388    -279.749      42.694
  C       83.747    -280.960      44.634
  O       83.865    -282.226      45.269
  C       84.899    -280.046      45.017
  O       86.132    -280.794      45.029
  C       84.902    -279.041      43.856
  N       84.812    -274.376      45.835
  C       85.835    -275.303      45.797
  N       86.999    -274.941      46.376
  N       85.729    -276.484      45.243
  C       84.503    -276.715      44.715
  C       83.411    -275.877      44.689
  C       83.547    -274.572      45.297
  O       82.680    -273.702      45.340
  N       82.347    -276.456      44.053
  C       82.783    -277.650      43.711
  N       84.085    -277.862      44.096
  O       80.004    -282.497      42.214
  O       79.061    -280.131      42.446
  H       86.857    -280.141      45.004
  H       79.340    -282.603      42.923
  H       84.946    -273.484      46.284
  H       82.203    -278.396      43.186
  H       85.909    -278.690      43.611
  H       84.782    -279.608      46.010
  H       87.136    -274.066      46.862
  H       82.797    -280.470      44.880
  H       87.777    -275.591      46.329
  H       84.764    -281.764      42.894
  H       82.933    -281.463      41.277
  H       82.434    -282.514      42.628
  P       82.831    -282.565      46.453
  C       84.476    -281.840      48.331
  O       83.237    -281.600      47.668
  O       83.313    -284.008      46.952
  O       81.393    -282.558      46.057
  H       82.577    -284.469      47.394
  H       84.607    -281.121      49.113
  H       85.279    -281.754      47.629
  H       84.472    -282.825      48.749

 6  7  8  9  10  11  12  13  14  15  26  29  33  34 0
 6-311+G(2d,p)
 ****
 36  38  39  40  41 0
 6-311+G(2d,p)
 ****
 1  2  3  4  5  16  17  18  19  20  21  22  23  24  25 0
 3-21G
 ****
 27  28  30  31  32  35  37  42  43  44  45  46  47 0
 3-21G
 ****
 48  49 0
 3-21G
 ****


