%nproc=1
%NoSave
%Mem=1900MB
#P OB98/GEN NMR

erre ene a

0 1
  C     -201.730      -3.350      -4.104
  O     -202.714      -3.969      -3.288
  P     -203.580      -5.154      -3.943
  C     -205.268      -5.261      -5.910
  O     -204.576      -4.439      -4.977
  C     -206.761      -4.958      -5.888
  O     -207.301      -5.262      -4.588
  C     -207.114      -3.500      -6.142
  O     -207.106      -3.184      -7.526
  C     -208.526      -3.438      -5.575
  O     -209.462      -3.936      -6.548
  C     -208.440      -4.395      -4.373
  N     -210.329      -0.903      -1.228
  C     -210.798      -1.338      -2.452
  N     -211.952      -0.782      -2.886
  N     -210.194      -2.236      -3.185
  C     -209.074      -2.732      -2.605
  C     -208.509      -2.379      -1.400
  C     -209.161      -1.347      -0.622
  O     -208.756      -0.874       0.438
  N     -207.379      -3.116      -1.145
  C     -207.284      -3.937      -2.171
  N     -208.271      -3.722      -3.100
  O     -204.547      -5.599      -2.746
  O     -202.788      -6.300      -4.472
  H     -209.224      -4.866      -6.726
  H     -204.824      -6.527      -2.874
  H     -210.844      -0.222      -0.698
  H     -206.521      -4.696      -2.282
  H     -209.327      -5.037      -4.315
  H     -208.841      -2.420      -5.321
  H     -212.529      -0.189      -2.312
  H     -206.461      -2.829      -5.573
  H     -212.330      -1.118      -3.765
  H     -207.253      -5.609      -6.623
  H     -205.113      -6.313      -5.648
  H     -204.854      -5.085      -6.909
  P     -206.448      -1.778      -7.939
  C     -207.257       0.668      -7.606
  O     -207.611      -0.696      -7.740
  O     -206.296      -1.898      -9.528
  O     -205.148      -1.487      -7.267
  H     -205.574      -1.322      -9.842
  H     -206.403       0.924      -8.238
  H     -207.013       0.881      -6.561
  H     -208.108       1.284      -7.905
  H     -201.233      -2.585      -3.545
  H     -202.199      -2.917      -4.962
  H     -201.016      -4.082      -4.419

 3  4  5  6  7  8  9  10  11  12  23  26  30  31  33  0
 6-311+G(2d,p)
 ****
 35  36  37  38 0
 6-311+G(2d,p)
 ****
 1  2  13  14  15  16  17  18  19  20  21  22  24  25  27  28  29 0
 3-21G
 ****
 32  34  39  40  41  42  43  44  45  46  47  48  49 0
 3-21G
 ****


