%nproc=1
%NoSave
%Mem=1900MB
#P OB98/GEN NMR

erre ene a

0 1
  C     -288.563     -16.474      75.991
  O     -289.349     -16.161      74.853
  H     -288.672     -15.667      76.722
  H     -287.510     -16.550      75.702
  H     -288.899     -17.412      76.439
  P     -289.354     -17.249      73.671
  C     -287.254     -16.036      72.705
  O     -287.858     -17.268      73.083
  C     -285.815     -16.279      72.228
  O     -285.023     -16.740      73.365
  C     -285.701     -17.357      71.137
  O     -284.572     -17.043      70.304
  C     -285.385     -18.598      71.956
  O     -284.872     -19.619      71.133
  C     -284.424     -17.994      72.983
  N     -281.303     -19.000      76.889
  C     -281.281     -18.035      75.939
  N     -282.158     -17.826      74.937
  C     -283.155     -18.732      74.985
  C     -283.304     -19.774      75.883
  C     -282.316     -19.899      76.872
  N     -282.317     -20.894      77.828
  N     -284.439     -20.508      75.590
  C     -284.969     -19.913      74.529
  N     -284.222     -18.837      74.133
  O     -290.208     -16.527      72.521
  O     -289.908     -18.588      74.023
  H     -284.753     -20.451      71.635
  H     -291.149     -16.786      72.592
  H     -280.448     -17.333      76.003
  H     -285.866     -20.222      74.015
  H     -283.437     -17.778      72.547
  H     -286.284     -18.990      72.446
  H     -286.600     -17.446      70.520
  H     -285.383     -15.328      71.900
  H     -287.255     -15.369      73.573
  H     -287.837     -15.582      71.892
  H     -281.554     -20.928      78.484
  H     -283.052     -21.593      77.809
  P     -284.833     -16.371      68.858
  C     -285.565     -18.586      67.678
  O     -285.885     -17.244      68.019
  O     -283.452     -16.689      68.097
  O     -285.090     -14.900      68.871
  H     -283.139     -15.885      67.634
  H     -286.373     -19.015      67.123
  H     -285.405     -19.153      68.571
  H     -284.676     -18.600      67.083

 6  7  8  9  10  11  12  13  14  15  25  28  32  33  34  35 0
 6-311+G(2d,p)
 ****
 36  37  40 0
 6-311+G(2d,p)
 ****
 1  2  3  4  5  16  17  18  19  20  21  22  23  24 0
 3-21G
 ****
 26  27  29  30  31  38  39 41  42  43  44  45  46  47  48 0
 3-21G
 ****


