%nproc=1
%NoSave
%Mem=1900MB
#P OB98/GEN NMR

erre ene a

0 1
  C     -293.059     -29.848     253.842
  O     -292.151     -29.236     252.936
  P     -292.457     -29.204     251.363
  C     -292.751     -26.655     251.542
  O     -293.323     -27.876     251.089
  C     -292.016     -25.956     250.399
  O     -292.928     -25.796     249.285
  C     -291.503     -24.562     250.772
  O     -290.253     -24.341     250.109
  C     -292.534     -23.607     250.179
  O     -291.952     -22.321     249.904
  C     -292.993     -24.394     248.942
  N     -295.996     -22.502     245.229
  C     -294.663     -22.719     245.279
  N     -293.930     -23.202     246.308
  C     -294.720     -23.519     247.348
  C     -296.092     -23.356     247.437
  C     -296.742     -22.814     246.318
  N     -298.103     -22.605     246.255
  N     -296.553     -23.763     248.675
  C     -295.480     -24.185     249.313
  N     -294.349     -24.067     248.546
  O     -293.047     -30.458     250.812
  O     -291.051     -28.864     250.688
  H     -291.592     -21.985     250.750
  H     -290.942     -29.365     249.860
  H     -294.110     -22.474     244.379
  H     -295.465     -24.578     250.320
  H     -292.326     -24.223     248.089
  H     -293.354     -23.465     250.891
  H     -291.389     -24.424     251.853
  H     -291.189     -26.592     250.065
  H     -292.040     -26.884     252.344
  H     -298.499     -22.328     245.368
  H     -298.682     -23.001     246.997
  H     -293.539     -26.010     251.948
  P     -289.158     -23.491     250.946
  C     -287.815     -25.706     251.209
  O     -288.390     -24.581     251.834
  O     -289.778     -22.333     251.666
  O     -288.128     -23.089     249.785
  H     -288.167     -23.726     249.036
  H     -287.370     -26.349     251.985
  H     -287.020     -25.396     250.529
  H     -288.573     -26.278     250.670
  H     -292.678     -29.766     254.839
  H     -293.174     -30.881     253.588
  H     -294.008     -29.358     253.781

 3  4  5  6  7  8  9  10  11  12  22  25  29  30  31  32 0
 6-311+G(2d,p)
 ****
 33  36  37 0
 6-311+G(2d,p)
 ****
 1  2  13  14  15  16  17  18  19  20  21  23  24  26 0
 3-21G
 ****
 27  28  34  35  38  39  40  41  42  43  44  45  46  47  48 0
 3-21G
 ****


