%nproc=1
%NoSave
%Mem=1900MB
#P OB98/GEN NMR

erre ene a

0 1
  C      -16.007    -887.740     573.121
  O      -16.723    -888.970     573.223
  P      -18.326    -888.910     572.958
  C      -18.272    -890.250     570.744
  O      -18.727    -890.180     572.083
  C      -18.667    -891.600     570.116
  O      -17.880    -892.680     570.663
  C      -20.112    -891.990     570.363
  O      -21.004    -891.340     569.494
  C      -20.068    -893.490     570.058
  O      -20.183    -893.690     568.620
  C      -18.671    -893.900     570.555
  N      -18.127    -898.290     573.033
  C      -18.053    -898.020     571.671
  N      -17.736    -899.060     570.870
  N      -18.240    -896.830     571.164
  C      -18.502    -895.870     572.079
  C      -18.636    -896.030     573.458
  C      -18.465    -897.340     574.015
  O      -18.544    -897.650     575.208
  N      -18.897    -894.840     574.082
  C      -18.928    -893.950     573.087
  N      -18.690    -894.540     571.856
  O      -18.469    -887.680     571.930
  O      -19.122    -888.680     574.212
  H      -20.916    -893.140     568.312
  H      -19.354    -887.260     572.028
  H      -17.985    -899.220     573.372
  H      -19.077    -892.890     573.195
  H      -18.156    -894.550     569.847
  H      -20.909    -894.050     570.516
  H      -17.503    -900.000     571.214
  H      -20.391    -891.850     571.410
  H      -17.613    -898.860     569.877
  H      -18.455    -891.540     569.036
  H      -17.177    -890.160     570.719
  H      -18.678    -889.420     570.172
  P      -22.526    -891.110     569.999
  C      -22.054    -889.000     571.448
  O      -22.649    -889.520     570.289
  O      -22.517    -891.780     571.455
  O      -23.544    -891.710     569.104
  H      -23.426    -892.120     571.659
  H      -21.066    -889.430     571.594
  H      -22.688    -889.230     572.323
  H      -21.981    -887.920     571.336
  H      -14.969    -887.914     573.316
  H      -16.392    -887.043     573.835
  H      -16.122    -887.341     572.135

 3  4  5  6  7  8  9  10  11  12  23  26  30  31  33  0
 6-311+G(2d,p)
 ****
 35  36  37  38 0
 6-311+G(2d,p)
 ****
 1  2  13  14  15  16  17  18  19  20  21  22  24  25  27  28  29 0
 3-21G
 ****
 32  34  39  40  41  42  43  44  45  46  47  48  49 0
 3-21G
 ****


