%nproc=1
%NoSave
%Mem=1900MB
#P OB98/GEN NMR

erre ene a

0 1
  C      -21.178     281.079    -535.638
  O      -22.421     280.601    -535.120
  P      -23.803     281.392    -535.197
  C      -24.129     280.970    -532.627
  O      -24.693     280.979    -533.939
  C      -24.867     280.022    -531.657
  O      -26.283     280.324    -531.679
  C      -24.711     278.575    -532.108
  O      -23.559     277.829    -531.763
  C      -26.022     277.901    -531.695
  O      -25.937     277.263    -530.417
  C      -27.015     279.073    -531.647
  N      -31.345     277.034    -533.453
  C      -30.645     276.707    -532.304
  N      -31.113     275.686    -531.572
  N      -29.558     277.327    -531.929
  C      -29.136     278.280    -532.799
  C      -29.741     278.672    -533.978
  C      -30.971     278.019    -534.364
  O      -31.649     278.268    -535.353
  N      -29.012     279.652    -534.614
  C      -27.967     279.837    -533.839
  N      -27.999     279.028    -532.711
  O      -24.473     281.388    -536.533
  O      -23.376     282.921    -534.875
  H      -25.760     277.953    -529.752
  H      -23.984     283.500    -535.390
  H      -32.194     276.537    -533.684
  H      -27.166     280.531    -534.032
  H      -27.580     279.073    -530.705
  H      -26.305     277.122    -532.413
  H      -31.874     275.087    -531.868
  H      -24.728     278.570    -533.204
  H      -30.483     275.305    -530.851
  H      -24.536     280.191    -530.632
  H      -24.166     282.004    -532.263
  H      -23.068     280.693    -532.679
  P      -22.208     277.730    -532.621
  C      -22.816     275.323    -533.260
  O      -21.814     276.182    -532.749
  O      -21.081     278.296    -531.634
  O      -22.219     278.486    -533.908
  H      -20.277     278.521    -532.134
  H      -22.560     274.284    -533.011
  H      -22.870     275.431    -534.349
  H      -23.794     275.553    -532.823
  H      -20.413     280.354    -535.454
  H      -20.921     281.999    -535.156
  H      -21.269     281.241    -536.692

 3  4  5  6  7  8  9  10  11  12  23  26  30  31 0
 6-311+G(2d,p)
 ****
 33  35  36  37  38 0
 6-311+G(2d,p)
 ****
 1  2  13  14  15  16  17  18  19  20  21  22  24  25 0
 3-21G
 ****
 27  28  29  32  34  39  40  41  42  43  44  45  46  47  48  49 0
 3-21G
 ****


