%nproc=1
%NoSave
%Mem=1900MB
#P OB98/GEN NMR

erre ene a

0 1
  C      122.315     100.914    -129.944
  O      121.260     101.624    -129.330
  H      122.922     101.619    -130.516
  H      121.925     100.155    -130.628
  H      122.949     100.445    -129.186
  P      120.151     100.790    -128.521
  C      121.849     100.041    -126.714
  O      120.990      99.641    -127.771
  C      121.890      98.963    -125.632
  O      122.858      99.290    -124.613
  C      120.581      98.766    -124.874
  O      119.590      98.086    -125.627
  C      121.080      97.948    -123.695
  O      121.313      96.592    -124.114
  C      122.415      98.665    -123.375
  N      122.286      99.663    -122.316
  C      122.449      99.208    -121.001
  O      122.687      98.023    -120.774
  N      122.300     100.102    -119.968
  C      121.996     101.336    -120.222
  N      121.813     102.169    -119.161
  C      121.833     101.862    -121.590
  C      121.984     100.982    -122.579
  O      118.977     100.310    -129.312
  O      119.748     101.744    -127.301
  H      121.985      96.622    -124.819
  H      119.054     101.277    -126.775
  H      121.572     102.898    -121.748
  H      121.864     101.289    -123.611
  H      123.185      97.941    -123.087
  H      120.372      97.914    -122.862
  H      120.199      99.722    -124.499
  H      122.225      98.032    -126.106
  H      121.890     101.764    -118.237
  H      121.476     100.987    -126.311
  H      121.314     103.046    -119.259
  H      122.865     100.190    -127.090
  P      118.144      97.884    -124.956
  C      117.276     100.135    -125.939
  O      117.509      99.348    -124.784
  O      118.504      97.449    -123.461
  O      117.244      96.904    -125.640
  H      118.520      96.475    -123.372
  H      116.853     101.075    -125.651
  H      116.598      99.623    -126.589
  H      118.201     100.302    -126.449

 6  7  8  9  10  11  12  13  14  15  16  26  30  31  32  33  35 0
 6-311+G(2d,p)
 ****
 37  38 0
 6-311+G(2d,p)
 ****
 1  2  3  4  5  17  18  19  20  21  22  23  24  25 0
 3-21G
 ****
 27  28  29  34  36  39  40  41  42  43  44  45  46 0
 3-21G
 ****


