%nproc=1
%NoSave
%Mem=1900MB
#P OB98/GEN NMR

erre ene a

0 1
  C     -159.934    -177.876     300.142
  O     -159.482    -178.990     300.895
  P     -158.067    -178.961     301.636
  C     -156.615    -180.027     299.723
  O     -156.921    -178.908     300.531
  C     -155.134    -179.970     299.326
  O     -154.934    -178.977     298.296
  C     -154.252    -179.602     300.517
  O     -153.739    -180.771     301.140
  C     -153.176    -178.739     299.876
  O     -152.164    -179.564     299.272
  C     -153.981    -177.993     298.788
  N     -154.744    -176.785     299.189
  C     -154.058    -175.650     299.612
  O     -152.833    -175.563     299.644
  N     -154.845    -174.605     300.027
  C     -156.208    -174.575     300.014
  O     -156.895    -173.747     300.603
  C     -156.859    -175.689     299.311
  C     -156.111    -176.736     298.962
  O     -157.941    -180.439     302.228
  O     -157.918    -177.919     302.694
  H     -152.589    -180.067     298.553
  H     -158.192    -180.458     303.173
  H     -154.353    -173.831     300.460
  H     -157.930    -175.641     299.155
  H     -156.578    -177.590     298.467
  H     -153.339    -177.703     297.953
  H     -152.666    -178.129     300.621
  H     -154.814    -178.984     301.234
  H     -154.838    -180.947     298.918
  H     -157.249    -180.030     298.828
  H     -156.826    -180.955     300.269
  P     -153.070    -180.664     302.590
  C     -150.857    -180.614     301.304
  O     -151.620    -180.033     302.338
  O     -153.098    -181.910     303.406
  O     -153.901    -179.481     303.287
  H     -154.599    -179.858     303.863
  H     -149.980    -179.993     301.112
  H     -151.449    -180.686     300.382
  H     -150.523    -181.615     301.600
  H     -160.897    -178.092     299.728
  H     -159.242    -177.676     299.351
  H     -160.004    -177.019     300.779

 3  4  5  6  7  8  9  10  11  12  13  23  28  29  30  31  32 0
 6-311+G(2d,p)
 ****
 33  34 0
 6-311+G(2d,p)
 ****
 1  2  14  15  16  17  18  19  20  21  22  24  25  26  27 0
 3-21G
 ****
 35  36  37  38  39  40  41  42  43  44  45 0
 3-21G
 ****


