%nproc=1
%NoSave
%Mem=1900MB
#P OB98/GEN NMR

erre ene a

0 1
  C      -19.146    -653.430     -16.525
  O      -18.766    -654.378     -15.552
  H      -19.908    -653.862     -17.171
  H      -18.284    -653.152     -17.142
  H      -19.555    -652.533     -16.039
  P      -17.561    -653.965     -14.572
  C      -17.515    -653.911     -11.959
  O      -18.037    -654.515     -13.137
  C      -18.445    -654.171     -10.779
  O      -19.705    -653.489     -10.958
  C      -18.817    -655.646     -10.575
  O      -17.780    -656.402      -9.963
  C      -20.019    -655.483      -9.667
  O      -19.590    -655.137      -8.342
  C      -20.749    -654.300     -10.353
  N      -21.726    -654.730     -11.355
  C      -22.910    -655.304     -10.876
  O      -23.099    -655.434      -9.663
  N      -23.841    -655.751     -11.789
  C      -23.624    -655.609     -13.062
  N      -24.581    -656.076     -13.911
  C      -22.395    -654.997     -13.604
  C      -21.495    -654.582     -12.715
  O      -17.743    -652.375     -14.412
  O      -16.195    -654.391     -14.989
  H      -19.175    -654.256      -8.404
  H      -17.133    -652.041     -13.710
  H      -22.259    -654.928     -14.674
  H      -20.579    -654.116     -13.043
  H      -21.262    -653.669      -9.611
  H      -20.623    -656.396      -9.585
  H      -19.132    -656.114     -11.514
  H      -17.969    -653.751      -9.881
  H      -25.379    -656.547     -13.510
  H      -17.421    -652.825     -12.137
  H      -24.442    -656.152     -14.911
  H      -16.520    -654.310     -11.731
  P      -17.906    -658.000     -10.033
  C      -16.222    -659.941     -10.465
  O      -16.412    -658.578     -10.113
  O      -18.478    -658.260     -11.500
  O      -18.776    -658.617      -8.972
  H      -19.076    -659.032     -11.522
  H      -15.176    -660.165     -10.473
  H      -16.632    -660.119     -11.437
  H      -16.715    -660.566      -9.750

 6  7  8  9  10  11  12  13  14  15  16  26  30  31  32  33  35 0
 6-311+G(2d,p)
 ****
 37  38 0
 6-311+G(2d,p)
 ****
 1  2  3  4  5  17  18  19  20  21  22  23  24  25 0
 3-21G
 ****
 27  28  29  34  36  39  40  41  42  43  44  45  46 0
 3-21G
 ****


