%nproc=1
%NoSave
%Mem=1900MB
#P OB98/GEN NMR

erre ene a

0 1
  C     -149.534    -195.042     293.712
  O     -148.146    -194.807     293.779
  H     -149.891    -195.500     294.641
  H     -150.050    -194.089     293.567
  H     -149.762    -195.699     292.866
  P     -147.219    -196.078     294.097
  C     -145.228    -194.881     292.949
  O     -145.704    -195.547     294.111
  C     -143.760    -194.513     293.118
  O     -143.623    -193.392     294.018
  C     -142.889    -195.611     293.716
  O     -142.536    -196.598     292.752
  C     -141.678    -194.802     294.162
  O     -140.818    -194.558     293.034
  C     -142.314    -193.488     294.634
  N     -140.139    -191.974     299.037
  C     -139.709    -191.914     297.754
  N     -140.333    -192.347     296.637
  C     -141.537    -192.869     296.936
  C     -142.108    -192.992     298.192
  C     -141.353    -192.525     299.282
  N     -141.790    -192.597     300.585
  N     -143.354    -193.567     298.112
  C     -143.539    -193.791     296.826
  N     -142.467    -193.391     296.075
  O     -147.299    -196.944     292.752
  O     -147.623    -196.881     295.289
  H     -140.332    -195.391     292.867
  H     -147.282    -197.894     292.982
  H     -138.734    -191.467     297.603
  H     -144.439    -194.228     296.395
  H     -141.735    -192.618     294.290
  H     -141.080    -195.310     294.928
  H     -143.366    -196.063     294.594
  H     -143.371    -194.201     292.136
  H     -145.811    -193.965     292.790
  H     -141.298    -192.071     301.290
  H     -142.704    -193.004     300.757
  H     -145.356    -195.538     292.083
  P     -141.736    -197.888     293.274
  C     -142.519    -199.428     291.334
  O     -141.431    -198.757     291.960
  O     -142.864    -198.741     294.027
  O     -140.577    -197.599     294.161
  H     -142.455    -199.314     294.700
  H     -142.164    -199.962     290.477
  H     -143.252    -198.711     291.028
  H     -142.959    -200.116     292.025

 6  7  8  9  10  11  12  13  14  15  25  28  32  33  34  35 0
 6-311+G(2d,p)
 ****
 36  39  40 0
 6-311+G(2d,p)
 ****
 1  2  3  4  5  16  17  18  19  20  21  22  23  24 0
 3-21G
 ****
 26  27  29  30  31  37  38  41  42  43  44  45  46  47  48 0
 3-21G
 ****


