%nproc=1
%NoSave
%Mem=1900MB
#P OB98/GEN NMR

erre ene a

0 1
  C      -12.404     557.317     100.516
  O      -13.300     556.761     101.456
  H      -11.430     556.841     100.637
  H      -12.293     558.389     100.681
  H      -12.757     557.132      99.495
  P      -14.793     557.336     101.529
  C      -15.866     555.464     100.111
  O      -15.784     556.080     101.392
  C      -16.010     553.946     100.261
  O      -14.756     553.431     100.775
  C      -17.127     553.557     101.244
  O      -18.063     552.634     100.689
  C      -16.361     553.124     102.490
  O      -17.045     552.204     103.313
  C      -15.033     552.607     101.922
  N      -13.926     552.653     102.873
  C      -14.061     551.914     104.043
  O      -15.029     551.213     104.333
  N      -13.009     551.994     104.920
  C      -11.871     552.722     104.741
  O      -10.957     552.753     105.560
  C      -11.796     553.500     103.494
  C      -12.811     553.429     102.626
  O      -15.099     558.472     100.611
  O      -14.968     557.764     103.064
  H      -16.427     551.920     104.021
  H      -14.882     558.730     103.146
  H      -13.092     551.460     105.771
  H      -10.912     554.097     103.329
  H      -12.787     553.986     101.698
  H      -15.141     551.573     101.583
  H      -16.165     554.018     103.100
  H      -17.748     554.425     101.491
  H      -16.168     553.506      99.270
  H      -14.949     555.706      99.561
  H      -16.724     555.867      99.562
  P      -19.488     552.298     101.322
  C      -20.781     552.927      99.127
  O      -20.497     551.952     100.127
  O      -19.971     553.244     102.367
  O      -19.249     550.868     102.034
  H      -19.827     550.844     102.825
  H      -21.470     552.519      98.417
  H      -19.875     553.201      98.628
  H      -21.211     553.793      99.585

 6  7  8  9  10  11  12  13  14  15  16  26  31  32  33  34  35 0
 6-311+G(2d,p)
 ****
 36  37 0
 6-311+G(2d,p)
 ****
 1  2  3  4  5  17  18  19  20  21  22  23  24  25 0
 3-21G
 ****
 27  28  29  30  38  39  40  41  42  43  44  45 0
 3-21G
 ****


