%nproc=1
%NoSave
%Mem=1900MB
#P OB98/GEN NMR

erre ene a

0 1
  C      186.018     485.615      48.921
  O      185.447     485.673      50.217
  P      185.473     487.088      50.975
  C      188.015     486.937      51.546
  O      186.681     487.038      52.028
  C      188.882     488.005      52.213
  O      188.614     489.303      51.645
  C      188.624     488.153      53.706
  O      189.265     487.129      54.452
  C      189.188     489.541      53.980
  O      190.610     489.491      54.174
  C      188.840     490.287      52.676
  N      187.699     491.181      52.827
  C      187.945     492.377      53.496
  O      189.051     492.668      53.955
  N      186.870     493.210      53.651
  C      185.592     492.948      53.263
  O      184.657     493.710      53.482
  C      185.380     491.656      52.590
  C      186.424     490.844      52.411
  O      184.165     487.051      51.893
  O      185.487     488.276      50.074
  H      190.758     489.052      55.035
  H      183.775     487.945      51.952
  H      187.036     494.091      54.109
  H      184.374     491.413      52.269
  H      186.290     489.880      51.928
  H      189.698     490.880      52.340
  H      188.755     489.991      54.879
  H      187.546     488.158      53.902
  H      189.937     487.758      52.029
  H      188.017     487.081      50.464
  H      188.399     485.937      51.763
  P      188.433     486.484      55.666
  C      189.481     487.810      57.657
  O      189.403     486.600      56.936
  O      188.461     484.934      55.257
  O      187.069     487.069      55.815
  H      189.279     484.693      54.790
  H      188.515     488.317      57.697
  H      190.217     488.465      57.184
  H      189.806     487.592      58.677
  H      185.932     484.620      48.538
  H      187.051     485.889      48.974
  H      185.502     486.293      48.273

 3  4  5  6  7  8  9  10  11  12  13  23  28  29  30  31  32 0
 6-311+G(2d,p)
 ****
 33  34 0
 6-311+G(2d,p)
 ****
 1  2  14  15  16  17  18  19  20  21  22  24  25  26 0
 3-21G
 ****
 27  35  36  37  38  39  40  41  42  43  44  45 0
 3-21G
 ****


