%nproc=1
%NoSave
%Mem=1900MB
#P OB98/GEN NMR

erre ene a

0 1
  C      -28.981     -69.201     -63.060
  O      -28.808     -70.444     -62.372
  P      -27.776     -70.472     -61.145
  C      -26.434     -72.695     -61.331
  O      -26.477     -71.296     -61.590
  C      -24.983     -73.182     -61.311
  O      -24.330     -72.926     -62.568
  C      -24.131     -72.479     -60.269
  O      -24.384     -73.004     -58.980
  C      -22.720     -72.749     -60.777
  O      -22.184     -73.968     -60.236
  C      -22.917     -72.866     -62.306
  N      -22.288     -71.779     -63.037
  C      -21.055     -72.072     -63.628
  O      -20.552     -73.189     -63.494
  N      -20.414     -71.083     -64.332
  C      -20.946     -69.904     -64.415
  N      -20.260     -68.965     -65.122
  C      -22.232     -69.547     -63.785
  C      -22.843     -70.523     -63.115
  O      -28.487     -71.443     -60.090
  O      -27.501     -69.127     -60.556
  H      -22.811     -74.672     -60.503
  H      -28.277     -71.165     -59.180
  H      -22.631     -68.548     -63.875
  H      -23.792     -70.352     -62.619
  H      -22.491     -73.809     -62.673
  H      -22.032     -71.948     -60.490
  H      -24.330     -71.400     -60.287
  H      -24.983     -74.265     -61.127
  H      -19.381     -69.243     -65.539
  H      -26.998     -73.236     -62.093
  H      -20.578     -68.014     -65.244
  H      -26.929     -72.892     -60.375
  P      -24.843     -71.983     -57.836
  C      -22.523     -71.108     -57.171
  O      -23.735     -70.824     -57.844
  O      -24.468     -72.787     -56.500
  O      -26.268     -71.542     -57.841
  H      -24.790     -72.305     -55.717
  H      -21.792     -70.337     -57.426
  H      -22.131     -72.080     -57.479
  H      -22.687     -71.095     -56.090
  H      -29.692     -69.326     -63.849
  H      -28.044     -68.887     -63.471
  H      -29.336     -68.460     -62.374

 3  4  5  6  7  8  9  10  11  12  13  21  23  27  28  29  30  32 0
 6-311+G(2d,p)
 ****
 34  35 0
 6-311+G(2d,p)
 ****
 1  2  14  15  16  17  18  19  20  22  24  25  26 0
 3-21G
 ****
 31  33  36  37  38  39  40  41  42  43  44  45  46 0
 3-21G
 ****


