%nproc=1
%NoSave
%Mem=1900MB
#P OB98/GEN NMR

erre ene a

0 1
  C      880.049    -841.452    -552.001
  O      880.055    -841.456    -550.581
  P      880.464    -842.788    -549.791
  C      877.958    -842.962    -549.198
  O      879.129    -843.675    -549.589
  C      876.731    -843.882    -549.292
  O      876.506    -844.292    -550.660
  C      876.838    -845.186    -548.503
  O      876.727    -845.006    -547.113
  C      875.728    -846.007    -549.132
  O      874.447    -845.654    -548.580
  C      875.817    -845.571    -550.624
  N      876.450    -846.544    -551.481
  C      875.749    -846.862    -552.644
  O      874.622    -846.397    -552.850
  N      876.342    -847.750    -553.519
  C      877.449    -848.327    -553.208
  N      878.010    -849.125    -554.160
  C      878.122    -848.118    -551.917
  C      877.578    -847.213    -551.120
  O      881.254    -842.554    -548.542
  O      881.296    -843.638    -550.858
  H      882.146    -843.915    -550.445
  H      874.334    -844.695    -548.686
  H      879.013    -848.712    -551.685
  H      878.019    -847.012    -550.136
  H      874.796    -845.364    -551.000
  H      875.861    -847.098    -548.989
  H      877.829    -845.659    -548.724
  H      875.852    -843.314    -548.946
  H      877.536    -849.229    -555.048
  H      877.816    -842.112    -549.825
  H      879.017    -849.370    -554.137
  H      878.112    -842.635    -548.142
  P      876.828    -846.280    -546.177
  C      874.303    -846.314    -545.635
  O      875.421    -847.001    -546.165
  O      876.961    -845.685    -544.692
  O      878.006    -847.181    -546.503
  H      877.563    -846.240    -544.156
  H      873.390    -846.728    -546.045
  H      874.335    -845.240    -545.917
  H      874.300    -846.386    -544.561
  H      879.753    -840.486    -552.354
  H      879.359    -842.188    -552.357
  H      881.030    -841.679    -552.362

 3  4  5  6  7  8  9  10  11  12  13  24  27  28  29  30  32 0
 6-311+G(2d,p)
 ****
 34  35 0
 6-311+G(2d,p)
 ****
 1  2  14  15  16  17  18  19  20  21  22  23  25  26 0
 3-21G
 ****
 31  33  36  37  38  39  40  41  42  43  44  45  46 0
 3-21G
 ****


