%nproc=1
%NoSave
%Mem=1900MB
#P OB98/GEN NMR

erre ene a

0 1
  C       -0.836    1032.896    -101.279
  O       -1.412    1033.817    -102.189
  P       -1.756    1033.281    -103.670
  C       -0.407    1035.241    -104.723
  O       -1.649    1034.551    -104.647
  C       -0.398    1036.180    -105.927
  O       -0.460    1035.437    -107.160
  C       -1.589    1037.134    -105.979
  O       -1.412    1038.262    -105.142
  C       -1.564    1037.553    -107.445
  O       -0.566    1038.569    -107.649
  C       -1.148    1036.242    -108.144
  N       -4.042    1035.459    -112.219
  C       -2.851    1036.140    -112.106
  N       -2.391    1036.743    -113.221
  N       -2.158    1036.221    -110.999
  C       -2.745    1035.565    -109.961
  C       -3.928    1034.856    -109.945
  C       -4.679    1034.783    -111.183
  O       -5.767    1034.244    -111.331
  N       -4.190    1034.333    -108.703
  C       -3.167    1034.722    -107.975
  N       -2.290    1035.512    -108.669
  O       -3.332    1033.000    -103.606
  O       -0.987    1032.067    -104.092
  H       -0.817    1039.321    -107.061
  H       -3.601    1032.426    -104.346
  H       -4.540    1035.427    -113.100
  H       -3.034    1034.472    -106.921
  H       -0.450    1036.425    -108.966
  H       -2.517    1037.969    -107.780
  H       -2.908    1036.777    -114.094
  H       -2.531    1036.619    -105.765
  H       -1.548    1037.308    -113.155
  H        0.549    1036.748    -105.916
  H        0.407    1034.515    -104.815
  H       -0.251    1035.804    -103.795
  P       -2.537    1038.517    -104.026
  C       -3.058    1041.036    -104.393
  O       -2.391    1040.060    -103.609
  O       -1.952    1037.727    -102.752
  O       -3.899    1038.051    -104.397
  H       -2.680    1037.456    -102.162
  H       -3.074    1041.983    -103.826
  H       -4.093    1040.740    -104.608
  H       -2.518    1041.193    -105.335
  H       -0.661    1033.382    -100.342
  H        0.092    1032.538    -101.673
  H       -1.504    1032.072    -101.134

 3  4  5  6  7  8  9  10  11  12  23  26  30  31 0
 6-311+G(2d,p)
 ****
 33  35  36  37  38 0
 6-311+G(2d,p)
 ****
 1  2  13  14  15  16  17  18  19  20  21  22  24  25 0
 3-21G
 ****
 27  28  29  32  34  39  40  41  42  43  44  45  46  47  48  49 0
 3-21G
 ****


