%nproc=1
%NoSave
%Mem=1900MB
#P OB98/GEN NMR

erre ene a

0 1
  C     -316.567       6.871      25.991
  O     -316.865       7.348      27.290
  H     -315.682       6.231      26.045
  H     -316.352       7.712      25.323
  H     -317.405       6.288      25.599
  P     -318.162       8.281      27.436
  C     -318.691      10.759      26.837
  O     -317.692       9.768      27.055
  C     -318.336      11.593      25.608
  O     -318.588      10.818      24.412
  C     -319.160      12.863      25.455
  O     -318.692      13.906      26.295
  C     -318.982      13.155      23.971
  O     -317.756      13.850      23.714
  C     -318.923      11.748      23.359
  N     -322.098      12.765      19.500
  C     -320.884      13.263      19.827
  N     -320.092      12.925      20.868
  C     -320.667      11.954      21.603
  C     -321.898      11.355      21.395
  C     -322.633      11.796      20.282
  N     -323.885      11.315      19.966
  N     -322.164      10.437      22.394
  C     -321.106      10.473      23.179
  N     -320.175      11.370      22.737
  O     -318.376       8.345      29.023
  O     -319.380       7.796      26.725
  H     -317.052      13.361      24.181
  H     -319.023       7.666      29.292
  H     -320.504      14.040      19.168
  H     -320.973       9.882      24.079
  H     -318.140      11.663      22.594
  H     -319.792      13.778      23.584
  H     -320.221      12.657      25.646
  H     -317.262      11.821      25.642
  H     -318.748      11.413      27.713
  H     -319.659      10.261      26.700
  H     -324.360      11.692      19.165
  H     -324.333      10.671      20.604
  P     -319.318      15.369      26.121
  C     -318.849      17.447      24.630
  O     -318.573      16.080      24.890
  O     -318.775      16.154      27.406
  O     -320.809      15.399      26.039
  H     -319.465      16.200      28.094
  H     -318.279      17.771      23.785
  H     -318.584      18.033      25.485
  H     -319.892      17.567      24.424

 6  7  8  9  10  11  12  13  14  15  25  28  32  33  34  35 0
 6-311+G(2d,p)
 ****
 36  37  40 0
 6-311+G(2d,p)
 ****
 1  2  3  4  5  16  17  18  19  20  21  22  23  24 0
 3-21G
 ****
 26  27  29  30  31  38  39 41  42  43  44  45  46  47  48 0
 3-21G
 ****


