%nproc=1
%NoSave
%Mem=1900MB
#P OB98/GEN NMR

erre ene a

0 1
  C      105.983     177.571    -211.007
  O      104.862     178.427    -211.138
  P      104.189     178.970    -209.786
  C      105.045     181.381    -210.269
  O      104.995     180.288    -209.361
  C      103.972     182.409    -209.915
  O      102.661     181.824    -210.046
  C      104.041     182.932    -208.487
  O      105.096     183.866    -208.333
  C      102.643     183.517    -208.335
  O      102.572     184.800    -208.975
  C      101.785     182.496    -209.104
  N       97.378     180.822    -207.107
  C       97.661     181.865    -207.919
  N       98.862     182.259    -208.389
  C       99.835     181.447    -207.947
  C       99.701     180.360    -207.100
  C       98.400     180.049    -206.676
  N       98.118     178.986    -205.844
  N      100.928     179.783    -206.846
  C      101.786     180.501    -207.539
  N      101.174     181.510    -208.231
  O      104.639     177.893    -208.695
  O      102.700     179.123    -209.843
  H      102.930     184.694    -209.879
  H      103.944     177.766    -208.021
  H       96.810     182.461    -208.233
  H      102.853     180.329    -207.573
  H      100.981     182.970    -209.680
  H      102.344     183.653    -207.291
  H      104.179     182.101    -207.783
  H      104.051     183.239    -210.629
  H      104.865     181.020    -211.287
  H       97.182     178.924    -205.470
  H       98.892     178.502    -205.411
  H      106.042     181.827    -210.232
  P      105.644     184.122    -206.848
  C      106.918     181.903    -207.073
  O      105.986     182.647    -206.308
  O      104.299     184.477    -206.062
  O      106.742     185.123    -206.747
  H      103.590     183.837    -206.245
  H      107.098     180.949    -206.570
  H      107.863     182.446    -207.154
  H      106.513     181.706    -208.069
  H      106.329     177.286    -211.978
  H      105.702     176.697    -210.458
  H      106.764     178.084    -210.486

 3  4  5  6  7  8  9  10  11  12  22  25  29  30  31  32 0
 6-311+G(2d,p)
 ****
 33  36  37 0
 6-311+G(2d,p)
 ****
 1  2  13  14  15  16  17  18  19  20  21  23  24  26 0
 3-21G
 ****
 27  28  34  35  38  39  40  41  42  43  44  45  46  47  48 0
 3-21G
 ****


