%nproc=1
%NoSave
%Mem=1900MB
#P OB98/GEN NMR

erre ene a

0 1
  C     -118.487     295.683     -72.304
  O     -117.253     296.419     -72.346
  P     -115.925     295.689     -72.879
  C     -114.576     296.039     -70.664
  O     -115.104     295.130     -71.617
  C     -113.734     295.288     -69.627
  O     -114.575     294.459     -68.794
  C     -112.708     294.335     -70.228
  O     -111.574     295.023     -70.726
  C     -112.396     293.441     -69.033
  O     -111.427     294.055     -68.167
  C     -113.769     293.351     -68.337
  N     -114.437     292.075     -68.566
  C     -114.136     291.052     -67.674
  O     -113.314     291.166     -66.768
  N     -114.794     289.867     -67.878
  C     -115.650     289.593     -68.907
  O     -116.193     288.506     -69.050
  C     -115.865     290.686     -69.866
  C     -115.253     291.856     -69.655
  O     -115.021     296.932     -73.334
  O     -116.118     294.733     -74.010
  H     -111.767     294.948     -67.957
  H     -114.417     296.652     -74.047
  H     -114.614     289.122     -67.226
  H     -116.518     290.505     -70.708
  H     -115.404     292.675     -70.356
  H     -113.654     293.495     -67.254
  H     -111.991     292.469     -69.334
  H     -113.175     293.731     -71.015
  H     -113.239     296.028     -68.984
  H     -115.399     296.547     -70.154
  H     -113.969     296.787     -71.185
  P     -111.434     295.119     -72.325
  C     -108.875     294.751     -72.707
  O     -110.175     294.201     -72.694
  O     -110.919     296.627     -72.494
  O     -112.706     294.814     -73.041
  H     -110.351     296.904     -71.755
  H     -108.760     295.535     -71.953
  H     -108.670     295.169     -73.699
  H     -108.153     293.955     -72.503
  H     -119.265     296.313     -71.927
  H     -118.374     294.833     -71.663
  H     -118.740     295.355     -73.290

 3  4  5  6  7  8  9  10  11  12  13  23  28  29  30  31  32 0
 6-311+G(2d,p)
 ****
 33  34 0
 6-311+G(2d,p)
 ****
 1  2  14  15  16  17  18  19  20  21  22  24  25  26 0
 3-21G
 ****
 27  35  36  37  38  39  40  41  42  43  44  45 0
 3-21G
 ****


