%nproc=1
%NoSave
%Mem=1900MB
#P OB98/GEN NMR

erre ene a

0 1
  C      501.150     346.820     -19.102
  O      501.807     347.714     -19.972
  P      503.012     348.669     -19.534
  C      501.547     350.332     -18.138
  O      502.614     349.389     -18.147
  C      502.028     351.689     -17.611
  O      500.915     352.621     -17.654
  C      502.462     351.601     -16.134
  O      503.650     352.333     -15.820
  C      501.198     351.982     -15.374
  O      501.429     352.397     -14.041
  C      500.584     353.024     -16.306
  N      496.701     356.090     -15.136
  C      498.026     356.411     -15.343
  N      498.397     357.666     -15.007
  N      498.915     355.545     -15.786
  C      498.425     354.297     -15.967
  C      497.126     353.867     -15.802
  C      496.148     354.836     -15.332
  O      494.980     354.566     -15.040
  N      497.004     352.524     -16.001
  C      498.238     352.118     -16.258
  N      499.137     353.163     -16.215
  O      503.631     349.499     -20.605
  O      504.113     347.593     -19.049
  H      500.572     352.489     -13.604
  H      504.987     347.960     -19.268
  H      496.080     356.776     -14.706
  H      498.537     351.104     -16.451
  H      500.995     354.016     -16.132
  H      500.567     351.084     -15.323
  H      497.768     358.295     -14.530
  H      502.738     350.560     -15.874
  H      499.407     357.842     -14.913
  H      502.821     352.076     -18.260
  H      500.772     349.916     -17.485
  H      501.114     350.436     -19.132
  P      504.536     352.279     -14.504
  C      503.232     354.303     -13.609
  O      503.735     353.011     -13.317
  O      505.751     353.293     -14.789
  O      505.061     350.927     -14.146
  H      506.580     352.922     -14.422
  H      502.957     354.792     -12.665
  H      502.339     354.220     -14.226
  H      503.981     354.907     -14.127
  H      500.384     346.299     -19.638
  H      500.711     347.367     -18.293
  H      501.856     346.116     -18.715

 3  4  5  6  7  8  9  10  11  12  23  26  30  31 0
 6-311+G(2d,p)
 ****
 33  35  36  37  38 0
 6-311+G(2d,p)
 ****
 1  2  13  14  15  16  17  18  19  20  21  22  24  25 0
 3-21G
 ****
 27  28  29  32  34  39  40  41  42  43  44  45  46  47  48  49 0
 3-21G
 ****


