%nproc=1
%NoSave
%Mem=1900MB
#P OB98/GEN NMR

erre ene a

0 1
  C       56.788    -379.785    -260.716
  O       57.775    -378.783    -260.657
  H       56.954    -380.386    -261.614
  H       55.792    -379.336    -260.786
  H       56.845    -380.439    -259.840
  P       57.750    -377.719    -259.455
  C       56.432    -376.006    -260.841
  O       56.417    -376.845    -259.692
  C       55.612    -374.735    -260.602
  O       54.350    -375.079    -259.974
  C       56.312    -373.706    -259.696
  O       56.216    -372.403    -260.281
  C       55.497    -373.746    -258.412
  O       55.585    -372.545    -257.653
  C       54.106    -374.081    -258.966
  N       53.201    -374.552    -257.924
  C       52.710    -373.573    -257.051
  O       53.042    -372.390    -257.189
  N       51.901    -373.959    -256.012
  C       51.650    -375.219    -255.831
  N       50.862    -375.535    -254.768
  C       52.170    -376.287    -256.710
  C       52.925    -375.884    -257.733
  O       59.004    -376.924    -259.295
  O       57.380    -378.575    -258.156
  H       55.238    -371.805    -258.197
  H       57.682    -378.091    -257.355
  H       51.932    -377.320    -256.514
  H       53.352    -376.595    -258.432
  H       53.653    -373.207    -259.458
  H       55.855    -374.576    -257.784
  H       57.361    -373.940    -259.513
  H       55.360    -374.294    -261.576
  H       50.538    -374.777    -254.182
  H       56.031    -376.565    -261.687
  H       50.619    -376.483    -254.511
  H       57.467    -375.722    -261.050
  P       57.545    -371.852    -260.997
  C       58.429    -370.860    -258.760
  O       58.687    -371.708    -259.874
  O       57.170    -370.342    -261.358
  O       57.938    -372.629    -262.204
  H       57.069    -370.244    -262.323
  H       59.274    -370.866    -258.104
  H       57.567    -371.214    -258.234
  H       58.252    -369.863    -259.104

 6  7  8  9  10  11  12  13  14  15  16  26  30  31  32  33  35 0
 6-311+G(2d,p)
 ****
 37  38 0
 6-311+G(2d,p)
 ****
 1  2  3  4  5  17  18  19  20  21  22  23  24  25 0
 3-21G
 ****
 27  28  29  34  36  39  40  41  42  43  44  45  46 0
 3-21G
 ****


