%nproc=1
%NoSave
%Mem=1900MB
#P OB98/GEN NMR

erre ene a

0 1
  C     -895.070     -40.469     183.405
  O     -895.410     -41.494     184.343
  P     -894.430     -41.765     185.586
  C     -896.140     -41.110     187.400
  O     -894.880     -40.842     186.811
  C     -896.110     -40.872     188.914
  O     -895.080     -41.691     189.523
  C     -895.820     -39.403     189.281
  O     -896.770     -38.862     190.216
  C     -894.370     -39.435     189.750
  O     -894.040     -38.354     190.620
  C     -894.230     -40.845     190.329
  N     -892.830     -41.294     190.329
  C     -891.970     -40.641     191.201
  O     -892.300     -39.673     191.887
  N     -890.670     -41.083     191.201
  C     -890.160     -42.049     190.390
  O     -888.970     -42.372     190.418
  C     -891.090     -42.672     189.451
  C     -892.380     -42.265     189.472
  O     -892.970     -41.752     185.279
  O     -894.890     -43.230     186.079
  H     -893.290     -38.626     191.198
  H     -894.090     -43.716     186.338
  H     -890.040     -40.623     191.850
  H     -890.720     -43.424     188.768
  H     -893.090     -42.695     188.770
  H     -894.590     -40.885     191.357
  H     -893.740     -39.349     188.866
  H     -895.910     -38.743     188.417
  H     -897.080     -41.181     189.320
  H     -896.420     -42.139     187.213
  H     -896.910     -40.490     186.914
  P     -898.270     -38.473     189.858
  C     -899.280     -40.232     191.464
  O     -899.200     -39.742     190.142
  O     -898.470     -37.821     188.524
  O     -898.670     -37.438     191.025
  H     -899.200     -36.716     190.661
  H     -899.620     -41.277     191.423
  H     -900.000     -39.658     192.044
  H     -898.300     -40.216     191.957
  H     -895.821     -40.418     182.644
  H     -894.124     -40.694     182.958
  H     -895.010     -39.528     183.911

 3  4  5  6  7  8  9  10  11  12  13  23  28  29  30  31  32 0
 6-311+G(2d,p)
 ****
 33  34 0
 6-311+G(2d,p)
 ****
 1  2  14  15  16  17  18  19  20  21  22  24  25  26  27 0
 3-21G
 ****
 35  36  37  38  39  40  41  42  43  44  45 0
 3-21G
 ****


