%nproc=1
%NoSave
%Mem=1900MB
#P OB98/GEN NMR

erre ene a

0 1
  C     1990.569     -68.791    1140.431
  O     1990.511     -67.459    1140.911
  H     1990.666     -69.480    1141.286
  H     1991.460     -68.912    1139.794
  H     1989.660     -69.038    1139.866
  P     1990.469     -66.282    1139.806
  C     1988.014     -65.491    1140.124
  O     1988.958     -66.179    1139.293
  C     1987.837     -64.043    1139.643
  O     1987.398     -64.080    1138.218
  C     1986.770     -63.267    1140.360
  O     1987.215     -62.762    1141.613
  C     1986.498     -62.144    1139.350
  O     1987.449     -61.076    1139.486
  C     1986.654     -62.857    1137.985
  N     1985.369     -63.115    1137.351
  C     1984.902     -62.144    1136.495
  O     1985.544     -61.090    1136.290
  N     1983.666     -62.361    1135.964
  C     1982.872     -63.450    1136.194
  O     1981.740     -63.543    1135.708
  C     1983.403     -64.446    1137.106
  C     1984.612     -64.262    1137.685
  O     1991.234     -66.930    1138.557
  O     1991.077     -65.001    1140.238
  H     1992.143     -66.541    1138.488
  H     1987.315     -60.491    1138.700
  H     1983.318     -61.668    1135.331
  H     1982.795     -65.288    1137.347
  H     1985.012     -64.993    1138.352
  H     1987.254     -62.243    1137.299
  H     1985.505     -61.740    1139.494
  H     1985.859     -63.872    1140.484
  H     1988.817     -63.550    1139.669
  H     1988.368     -65.438    1141.171
  H     1987.062     -66.010    1140.109
  P     1986.388     -63.143    1142.922
  C     1987.907     -65.222    1143.627
  O     1986.632     -64.744    1143.159
  O     1984.885     -63.061    1142.351
  O     1986.694     -62.260    1144.101
  H     1984.837     -63.231    1141.389
  H     1987.876     -66.287    1143.721
  H     1988.123     -64.786    1144.580
  H     1988.669     -64.948    1142.928

 6  7  8  9  10  11  12  13  14  15  16  27  31  32  33  34  35 0
 6-311+G(2d,p)
 ****
 36  37 0
 6-311+G(2d,p)
 ****
 1  2  3  4  5  17  18  19  20  21  22  23  24  25 0
 3-21G
 ****
 26  28  29  30  38  39  40  41  42  43  44  45 0
 3-21G
 ****


