%nproc=1
%NoSave
%Mem=1900MB
#P OB98/GEN NMR

erre ene a

0 1
  C      153.017    -278.683    -287.778
  O      152.810    -279.811    -286.953
  H      152.711    -278.934    -288.798
  H      154.077    -278.416    -287.787
  H      152.423    -277.832    -287.437
  P      152.921    -279.638    -285.364
  C      154.825    -279.652    -283.623
  O      154.467    -279.836    -284.987
  C      156.158    -280.338    -283.319
  O      156.006    -281.775    -283.541
  C      157.330    -279.863    -284.200
  O      158.525    -279.946    -283.411
  C      157.319    -280.916    -285.294
  O      158.497    -280.889    -286.057
  C      157.055    -282.166    -284.448
  N      156.677    -283.331    -285.235
  C      157.691    -284.011    -285.901
  O      158.879    -283.698    -285.843
  N      157.292    -285.079    -286.660
  C      156.009    -285.518    -286.817
  O      155.710    -286.493    -287.492
  C      154.975    -284.738    -286.112
  C      155.353    -283.697    -285.366
  O      151.965    -280.449    -284.553
  O      152.695    -278.067    -285.139
  H      151.768    -277.904    -284.889
  H      158.496    -281.616    -286.716
  H      158.013    -285.584    -287.148
  H      153.947    -285.046    -286.235
  H      154.618    -283.100    -284.834
  H      157.932    -282.410    -283.838
  H      156.490    -280.733    -285.986
  H      157.202    -278.838    -284.563
  H      156.391    -280.207    -282.249
  H      154.034    -280.084    -283.001
  H      154.900    -278.580    -283.412
  P      159.327    -278.660    -282.883
  C      160.818    -276.781    -283.826
  O      160.125    -277.991    -284.106
  O      160.187    -278.939    -281.693
  O      158.201    -277.578    -282.522
  H      158.489    -277.070    -281.739
  H      161.307    -276.436    -284.713
  H      161.547    -276.956    -283.062
  H      160.122    -276.040    -283.492

 6  7  8  9  10  11  12  13  14  15  16  27  31  32  33  34  35 0
 6-311+G(2d,p)
 ****
 36  37 0
 6-311+G(2d,p)
 ****
 1  2  3  4  5  17  18  19  20  21  22  23  24  25 0
 3-21G
 ****
 26  28  29  30  38  39  40  41  42  43  44  45 0
 3-21G
 ****


