%nproc=1
%NoSave
%Mem=1900MB
#P OB98/GEN NMR

erre ene a

0 1
  C      258.010      50.260      81.086
  O      259.346      50.114      81.525
  H      257.747      49.400      80.465
  H      257.907      51.171      80.490
  H      257.333      50.298      81.944
  P      259.941      51.315      82.407
  C      260.646      53.094      80.659
  O      261.058      52.028      81.502
  C      261.839      53.969      80.283
  O      261.455      54.963      79.307
  C      262.459      54.722      81.455
  O      263.374      53.898      82.159
  C      263.142      55.877      80.737
  O      264.401      55.462      80.167
  C      262.129      56.211      79.632
  N      259.712      60.327      77.988
  C      260.709      59.581      77.393
  N      261.153      60.012      76.190
  N      261.241      58.515      77.931
  C      260.743      58.235      79.159
  C      259.757      58.895      79.855
  C      259.141      60.041      79.223
  O      258.199      60.692      79.661
  N      259.516      58.294      81.064
  C      260.378      57.295      81.110
  N      261.149      57.221      79.980
  O      260.803      50.563      83.529
  O      258.929      52.220      83.022
  H      264.866      56.243      79.819
  H      260.704      51.044      84.373
  H      259.321      61.121      77.514
  H      260.475      56.596      81.930
  H      262.623      56.557      78.716
  H      263.369      56.697      81.419
  H      261.001      60.958      75.872
  H      261.687      55.116      82.126
  H      261.935      59.509      75.791
  H      262.584      53.323      79.804
  H      259.903      53.699      81.191
  H      260.190      52.682      79.753
  P      263.063      53.558      83.693
  C      264.750      55.209      84.773
  O      264.391      53.853      84.545
  O      262.965      51.959      83.691
  O      261.809      54.170      84.224
  H      262.032      51.685      83.764
  H      265.650      55.247      85.351
  H      263.963      55.702      85.305
  H      264.907      55.699      83.835

 6  7  8  9  10  11  12  13  14  15  26  29  33  34 0
 6-311+G(2d,p)
 ****
 36  38  39  40  41 0
 6-311+G(2d,p)
 ****
 1  2  3  4  5  16  17  18  19  20  21  22  23  24  25 0
 3-21G
 ****
 27  28  30  31  32  35  37  42  43  44  45  46  47 0
 3-21G
 ****
 48  49 0
 3-21G
 ****


