%nproc=1
%NoSave
%Mem=1900MB
#P OB98/GEN NMR

erre ene a

0 1
  C     1017.655    -642.419      73.373
  O     1017.530    -641.121      72.813
  H     1018.086    -642.308      74.387
  H     1018.343    -643.023      72.779
  H     1016.690    -642.916      73.461
  P     1016.780    -640.998      71.402
  C     1017.828    -638.681      70.903
  O     1017.699    -640.025      70.491
  C     1019.119    -638.092      70.352
  O     1020.265    -638.773      70.951
  C     1019.284    -638.245      68.854
  O     1018.494    -637.323      68.156
  C     1020.798    -638.038      68.694
  O     1021.110    -636.659      68.695
  C     1021.321    -638.749      69.976
  N     1021.835    -640.111      69.698
  C     1023.202    -640.260      69.630
  O     1023.983    -639.317      69.740
  N     1023.645    -641.541      69.373
  C     1022.871    -642.621      69.121
  O     1023.316    -643.734      68.815
  C     1021.424    -642.400      69.178
  C     1020.973    -641.163      69.469
  O     1015.341    -640.622      71.442
  O     1016.993    -642.431      70.709
  H     1022.072    -636.589      68.585
  H     1016.163    -642.930      70.743
  H     1024.641    -641.675      69.325
  H     1020.770    -643.237      68.947
  H     1019.903    -640.980      69.498
  H     1022.158    -638.159      70.398
  H     1021.171    -638.473      67.755
  H     1019.041    -639.289      68.567
  H     1019.192    -637.028      70.650
  H     1017.864    -638.658      72.002
  H     1016.970    -638.111      70.547
  P     1017.076    -637.768      67.541
  C     1017.506    -636.247      65.513
  O     1017.125    -637.532      65.936
  O     1015.869    -637.209      68.221
  O     1017.102    -639.385      67.676
  H     1016.362    -639.654      68.248
  H     1017.503    -636.208      64.444
  H     1018.489    -636.029      65.875
  H     1016.816    -635.526      65.898

 6  7  8  9  10  11  12  13  14  15  16  26  31  32  33  34  35 0
 6-311+G(2d,p)
 ****
 36  37 0
 6-311+G(2d,p)
 ****
 1  2  3  4  5  17  18  19  20  21  22  23  24  25 0
 3-21G
 ****
 27  28  29  30  38  39  40  41  42  43  44  45 0
 3-21G
 ****


