%nproc=1
%NoSave
%Mem=1900MB
#P OB98/GEN NMR

erre ene a

0 1
  C      412.902    -220.202     200.531
  O      413.048    -220.937     201.732
  H      412.188    -220.706     199.877
  H      412.516    -219.209     200.774
  H      413.865    -220.090     200.024
  P      413.878    -222.309     201.655
  C      413.390    -224.714     200.808
  O      412.883    -223.404     201.018
  C      412.332    -225.755     201.182
  O      412.090    -225.674     202.620
  C      410.983    -225.580     200.467
  O      410.462    -226.880     200.147
  C      410.103    -224.949     201.533
  O      408.719    -225.202     201.328
  C      410.669    -225.589     202.803
  N      406.775    -223.780     205.537
  C      406.842    -224.751     204.596
  N      407.938    -225.208     203.953
  C      409.052    -224.608     204.419
  C      409.137    -223.607     205.366
  C      407.921    -223.176     205.935
  N      407.828    -222.146     206.840
  N      410.450    -223.205     205.531
  C      411.137    -223.935     204.667
  N      410.335    -224.793     203.973
  O      413.973    -222.738     203.199
  O      415.223    -222.213     201.018
  H      408.205    -224.686     201.987
  H      414.757    -222.327     203.607
  H      405.898    -225.210     204.319
  H      412.203    -223.855     204.492
  H      410.280    -226.599     202.970
  H      410.256    -223.866     201.538
  H      411.042    -224.971     199.557
  H      412.748    -226.754     200.987
  H      414.275    -224.864     201.433
  H      406.904    -221.835     207.101
  H      408.662    -221.616     207.060
  H      413.680    -224.826     199.754
  P      410.225    -227.214     198.595
  C      408.719    -226.323     196.664
  O      409.155    -226.169     198.007
  O      409.408    -228.588     198.642
  O      411.486    -227.347     197.801
  H      409.634    -229.140     197.867
  H      408.013    -225.554     196.428
  H      408.256    -227.280     196.547
  H      409.559    -226.250     196.006

 6  7  8  9  10  11  12  13  14  15  25  28  32  33  34  35 0
 6-311+G(2d,p)
 ****
 36  39  40 0
 6-311+G(2d,p)
 ****
 1  2  3  4  5  16  17  18  19  20  21  22  23  24 0
 3-21G
 ****
 26  27  29  30  31  37  38  41  42  43  44  45  46  47 0
 3-21G
 ****
 48 0
 3-21G
 ****


