%nproc=1
%NoSave
%Mem=1900MB
#P OB98/GEN NMR

erre ene a

0 1
  C     1035.408     186.822     370.950
  O     1036.240     187.853     370.446
  H     1034.512     186.765     370.335
  H     1035.114     187.044     371.976
  H     1035.928     185.861     370.913
  P     1037.676     188.035     371.140
  C     1038.729     187.251     368.893
  O     1038.699     187.120     370.304
  C     1039.722     186.240     368.299
  O     1041.021     186.463     368.898
  C     1039.325     184.784     368.573
  O     1039.669     183.992     367.440
  C     1040.207     184.401     369.749
  O     1040.425     183.005     369.876
  C     1041.478     185.196     369.442
  N     1042.306     185.412     370.627
  C     1043.686     185.396     370.454
  O     1044.250     185.282     369.367
  N     1044.430     185.500     371.593
  C     1043.944     185.606     372.869
  O     1044.660     185.695     373.856
  C     1042.482     185.626     372.994
  C     1041.743     185.523     371.885
  O     1037.518     187.242     372.524
  O     1038.120     189.445     371.341
  H     1037.198     187.834     373.227
  H     1040.869     182.700     369.053
  H     1045.428     185.496     371.483
  H     1042.062     185.692     373.981
  H     1040.656     185.509     371.932
  H     1042.057     184.700     368.667
  H     1039.749     184.752     370.686
  H     1038.267     184.660     368.800
  H     1039.815     186.434     367.232
  H     1039.054     188.271     368.639
  H     1037.726     187.079     368.494
  P     1038.615     183.941     366.220
  C     1040.050     185.717     364.935
  O     1038.775     185.347     365.450
  O     1037.240     184.076     367.006
  O     1038.771     182.728     365.368
  H     1037.271     184.665     367.773
  H     1039.978     186.672     364.458
  H     1040.373     184.986     364.224
  H     1040.757     185.771     365.737

 6  7  8  9  10  11  12  13  14  15  16  27  31  32  33  34  35 0
 6-311+G(2d,p)
 ****
 36  37 0
 6-311+G(2d,p)
 ****
 1  2  3  4  5  17  18  19  20  21  22  23  24  25 0
 3-21G
 ****
 26  28  29  30  38  39  40  41  42  43  44  45 0
 3-21G
 ****


