%nproc=1
%NoSave
%Mem=1900MB
#P OB98/GEN NMR

erre ene a

0 1
  C     -899.296    -400.280    -844.573
  O     -898.456    -399.151    -844.459
  P     -897.546    -398.938    -843.166
  C     -895.196    -399.343    -844.123
  O     -896.246    -399.872    -843.318
  C     -893.876    -399.309    -843.358
  O     -893.976    -398.327    -842.284
  C     -893.466    -400.642    -842.712
  O     -892.036    -400.696    -842.761
  C     -893.916    -400.482    -841.273
  O     -893.246    -401.360    -840.381
  C     -893.616    -398.996    -841.052
  N     -893.216    -396.730    -836.497
  C     -892.286    -397.227    -837.337
  N     -892.476    -397.840    -838.517
  C     -893.776    -397.913    -838.821
  C     -894.846    -397.476    -838.049
  C     -894.536    -396.840    -836.839
  N     -895.466    -396.302    -835.980
  N     -896.036    -397.786    -838.668
  C     -895.706    -398.384    -839.789
  N     -894.346    -398.438    -839.957
  O     -898.256    -399.064    -841.865
  O     -896.946    -397.455    -843.353
  H     -893.666    -401.291    -839.502
  H     -897.386    -396.841    -842.739
  H     -891.256    -397.112    -837.016
  H     -896.386    -398.814    -840.501
  H     -892.546    -398.816    -840.883
  H     -894.996    -400.679    -841.203
  H     -893.906    -401.522    -843.204
  H     -893.096    -398.955    -844.041
  H     -895.486    -398.336    -844.422
  H     -895.116    -395.745    -835.211
  H     -896.406    -396.131    -836.329
  H     -895.096    -399.949    -845.028
  P     -891.276    -402.098    -842.536
  C     -891.426    -402.672    -845.028
  O     -891.766    -403.068    -843.698
  O     -891.376    -402.655    -841.149
  O     -889.756    -401.770    -842.934
  H     -889.176    -402.452    -842.563
  H     -892.136    -401.912    -845.366
  H     -891.486    -403.540    -845.679
  H     -890.416    -402.262    -845.068
  H     -899.820    -400.242    -845.505
  H     -900.000    -400.284    -843.767
  H     -898.704    -401.170    -844.533

 3  4  5  6  7  8  9  10  11  12  22  25  29  30  31  32 0
 6-311+G(2d,p)
 ****
 33  36  37 0
 6-311+G(2d,p)
 ****
 1  2  13  14  15  16  17  18  19  20  21  23  24  26 0
 3-21G
 ****
 27  28  34  35  38  39  40  41  42  43  44  45  46  47  48 0
 3-21G
 ****


