%nproc=1
%NoSave
%Mem=1900MB
#P OB98/GEN NMR

erre ene a

0 1
  C      -29.798    -192.025     216.982
  O      -29.756    -192.440     215.630
  H      -30.460    -192.697     217.536
  H      -30.196    -191.008     217.046
  H      -28.800    -192.064     217.426
  P      -28.663    -191.728     214.701
  C      -30.199    -190.339     213.092
  O      -29.299    -190.340     214.192
  C      -29.763    -189.304     212.060
  O      -30.458    -189.499     210.813
  C      -30.096    -187.869     212.435
  O      -29.270    -187.370     213.465
  C      -29.886    -187.171     211.098
  O      -28.509    -186.836     210.886
  C      -30.348    -188.250     210.089
  N      -31.589    -187.879     209.434
  C      -31.446    -187.090     208.284
  O      -30.325    -186.778     207.884
  N      -32.576    -186.650     207.646
  C      -33.744    -186.944     208.126
  N      -34.824    -186.449     207.463
  C      -33.938    -187.770     209.335
  C      -32.827    -188.199     209.935
  O      -28.679    -192.640     213.388
  O      -27.317    -191.576     215.324
  H      -28.338    -186.030     211.416
  H      -29.569    -192.815     213.043
  H      -34.933    -187.998     209.687
  H      -32.878    -188.811     210.829
  H      -29.585    -188.404     209.314
  H      -30.453    -186.240     211.036
  H      -31.159    -187.785     212.700
  H      -28.686    -189.430     211.883
  H      -34.643    -185.841     206.672
  H      -31.220    -190.132     213.430
  H      -35.773    -186.546     207.788
  H      -30.191    -191.342     212.655
  P      -29.870    -186.494     214.662
  C      -29.017    -184.443     213.357
  O      -30.103    -185.013     214.080
  O      -29.097    -186.537     215.936
  O      -31.372    -187.037     214.793
  H      -31.914    -186.939     213.990
  H      -29.287    -183.464     213.021
  H      -28.788    -185.059     212.513
  H      -28.160    -184.378     213.994

 6  7  8  9  10  11  12  13  14  15  16  26  30  31  32  33  35 0
 6-311+G(2d,p)
 ****
 37  38 0
 6-311+G(2d,p)
 ****
 1  2  3  4  5  17  18  19  20  21  22  23  24  25 0
 3-21G
 ****
 27  28  29  34  36  39  40  41  42  43  44  45  46 0
 3-21G
 ****


