%nproc=1
%NoSave
%Mem=1900MB
#P OB98/GEN NMR

erre ene a

0 1
  C       70.530     -53.036     -17.454
  O       69.662     -54.170     -17.572
  P       69.578     -55.034     -18.921
  C       67.018     -55.219     -18.877
  O       68.246     -55.936     -18.930
  C       65.848     -55.978     -19.518
  O       65.777     -55.717     -20.946
  C       65.898     -57.503     -19.353
  O       64.538     -57.939     -19.301
  C       66.551     -57.943     -20.652
  O       66.341     -59.314     -20.956
  C       65.896     -56.976     -21.633
  N       66.551     -58.700     -26.410
  C       65.579     -58.926     -25.501
  N       65.454     -58.403     -24.265
  C       66.443     -57.531     -24.010
  C       67.497     -57.192     -24.843
  C       67.538     -57.829     -26.096
  N       68.550     -57.639     -27.009
  N       68.337     -56.285     -24.227
  C       67.802     -56.092     -23.038
  N       66.654     -56.819     -22.860
  O       70.826     -55.794     -19.241
  O       69.294     -53.950     -20.065
  H       66.883     -59.541     -21.733
  H       69.880     -54.127     -20.826
  H       64.804     -59.625     -25.802
  H       68.212     -55.457     -22.263
  H       64.885     -57.306     -21.903
  H       67.633     -57.780     -20.584
  H       66.448     -57.828     -18.467
  H       64.921     -55.581     -19.085
  H       67.152     -54.261     -19.392
  H       68.541     -58.211     -27.839
  H       69.357     -57.095     -26.742
  H       66.783     -55.003     -17.829
  P       63.806     -58.252     -17.912
  C       63.546     -60.732     -18.477
  O       62.873     -59.528     -18.160
  O       63.115     -57.083     -17.290
  O       64.965     -58.820     -16.964
  H       64.687     -58.751     -16.032
  H       63.880     -60.703     -19.518
  H       62.857     -61.570     -18.347
  H       64.411     -60.881     -17.823
  H       70.429     -52.610     -16.478
  H       70.266     -52.306     -18.191
  H       71.543     -53.345     -17.605

 3  4  5  6  7  8  9  10  11  12  22  25  29  30  31  32 0
 6-311+G(2d,p)
 ****
 33  36  37 0
 6-311+G(2d,p)
 ****
 1  2  13  14  15  16  17  18  19  20  21  23  24  26 0
 3-21G
 ****
 27  28  34  35  38  39  40  41  42  43  44  45  46  47  48 0
 3-21G
 ****


