%nproc=1
%NoSave
%Mem=1900MB
#P OB98/GEN NMR

erre ene a

0 1
  C      -25.168      31.133       7.827
  O      -25.594      30.595       9.063
  H      -24.828      30.333       7.166
  H      -26.011      31.647       7.356
  H      -24.361      31.853       7.987
  P      -24.493      29.782       9.901
  C      -23.275      31.731      11.091
  O      -24.185      30.648      11.220
  C      -23.465      32.714      12.244
  O      -24.842      33.172      12.227
  C      -23.178      32.115      13.631
  O      -22.290      32.963      14.371
  C      -24.530      32.111      14.320
  O      -24.441      32.354      15.720
  C      -25.280      33.219      13.591
  N      -29.774      35.533      12.935
  C      -28.549      35.804      12.435
  N      -27.412      35.093      12.570
  C      -27.632      33.976      13.284
  C      -28.830      33.554      13.837
  C      -29.936      34.401      13.657
  N      -31.172      34.153      14.214
  N      -28.665      32.357      14.509
  C      -27.381      32.084      14.400
  N      -26.714      33.041      13.681
  O      -23.165      29.951       9.019
  O      -24.822      28.347      10.129
  H      -24.414      33.319      15.846
  H      -22.864      29.067       8.734
  H      -28.470      36.719      11.854
  H      -26.877      31.241      14.856
  H      -25.031      34.210      13.990
  H      -25.006      31.136      14.166
  H      -22.755      31.108      13.576
  H      -22.831      33.591      12.067
  H      -23.458      32.253      10.145
  H      -31.875      34.868      14.132
  H      -31.267      33.368      14.844
  H      -22.253      31.340      11.086
  P      -20.751      32.499      14.430
  C      -19.662      32.178      12.094
  O      -20.005      33.087      13.133
  O      -20.835      30.925      14.152
  O      -20.086      32.788      15.734
  H      -20.413      30.435      14.884
  H      -19.175      32.708      11.302
  H      -20.550      31.714      11.719
  H      -19.003      31.428      12.479

 6  7  8  9  10  11  12  13  14  15  25  28  32  33  34  35 0
 6-311+G(2d,p)
 ****
 36  39  40 0
 6-311+G(2d,p)
 ****
 1  2  3  4  5  16  17  18  19  20  21  22  23  24 0
 3-21G
 ****
 26  27  29  30  31  37  38  41  42  43  44  45  46  47  48 0
 3-21G
 ****


