%nproc=1
%NoSave
%Mem=1900MB
#P OB98/GEN NMR

erre ene a

0 1
  C       -0.632    -196.963    -213.873
  O        0.503    -197.736    -214.207
  H       -0.479    -195.940    -214.226
  H       -0.768    -196.946    -212.789
  H       -1.527    -197.372    -214.351
  P        0.439    -199.304    -213.881
  C        2.404    -199.441    -212.177
  O        1.933    -199.741    -213.482
  C        3.932    -199.472    -212.159
  O        4.371    -200.848    -212.330
  C        4.569    -198.644    -213.281
  O        5.765    -198.033    -212.788
  C        4.919    -199.688    -214.327
  O        5.959    -199.289    -215.209
  C        5.294    -200.878    -213.439
  N        5.213    -202.154    -214.145
  C        6.165    -202.404    -215.129
  O        7.109    -201.661    -215.395
  N        5.997    -203.571    -215.830
  C        4.989    -204.474    -215.665
  O        4.882    -205.490    -216.340
  C        4.011    -204.152    -214.616
  C        4.164    -203.025    -213.917
  O        0.237    -199.972    -215.321
  O       -0.607    -199.719    -212.904
  H       -0.713    -200.065    -215.524
  H        6.216    -200.068    -215.745
  H        6.681    -203.767    -216.546
  H        3.191    -204.841    -214.461
  H        3.452    -202.751    -213.147
  H        6.303    -200.745    -213.028
  H        4.035    -199.921    -214.933
  H        3.900    -197.879    -213.678
  H        4.284    -199.142    -211.174
  H        2.019    -200.188    -211.476
  H        2.040    -198.452    -211.880
  P        5.868    -196.433    -212.880
  C        8.008    -196.174    -214.358
  O        7.428    -196.102    -213.068
  O        5.550    -196.010    -211.373
  O        4.959    -195.850    -213.910
  H        5.916    -196.622    -210.712
  H        9.047    -195.924    -214.297
  H        7.513    -195.485    -215.010
  H        7.902    -197.167    -214.742

 6  7  8  9  10  11  12  13  14  15  16  27  31  32  33  34  35 0
 6-311+G(2d,p)
 ****
 36  37 0
 6-311+G(2d,p)
 ****
 1  2  3  4  5  17  18  19  20  21  22  23  24  25 0
 3-21G
 ****
 26  28  29  30  38  39  40  41  42  43  44  45 0
 3-21G
 ****


