%nproc=1
%NoSave
%Mem=1900MB
#P OB98/GEN NMR

erre ene a

0 1
  C     -183.654     555.160    -369.897
  O     -184.742     556.032    -370.131
  H     -183.770     554.709    -368.909
  H     -182.715     555.721    -369.920
  H     -183.631     554.366    -370.650
  P     -184.859     556.670    -371.593
  C     -186.568     555.166    -372.901
  O     -186.335     556.344    -372.139
  C     -187.739     554.384    -372.306
  O     -187.450     553.955    -370.960
  C     -189.015     555.201    -372.161
  O     -189.628     555.479    -373.396
  C     -189.825     554.285    -371.258
  O     -190.413     553.209    -372.005
  C     -188.730     553.751    -370.302
  N     -188.772     554.390    -368.995
  C     -189.736     553.895    -368.105
  O     -190.476     552.971    -368.442
  N     -189.854     554.487    -366.869
  C     -189.068     555.460    -366.542
  N     -189.241     556.005    -365.307
  C     -188.020     555.992    -367.436
  C     -187.935     555.421    -368.636
  O     -183.937     555.702    -372.471
  O     -184.503     558.118    -371.689
  H     -189.682     552.606    -372.241
  H     -184.168     554.763    -372.389
  H     -187.380     556.799    -367.116
  H     -187.195     555.750    -369.353
  H     -188.840     552.667    -370.155
  H     -190.643     554.812    -370.766
  H     -188.809     556.125    -371.605
  H     -187.902     553.492    -372.923
  H     -189.983     555.628    -364.731
  H     -185.671     554.543    -372.943
  H     -188.712     556.788    -364.957
  H     -186.804     555.476    -373.924
  P     -190.548     556.780    -373.577
  C     -188.794     558.370    -374.586
  O     -189.952     557.584    -374.833
  O     -190.727     557.604    -372.345
  O     -191.912     556.190    -374.170
  H     -191.818     555.721    -375.018
  H     -188.492     558.855    -375.491
  H     -188.003     557.740    -374.238
  H     -189.015     559.107    -373.843

 6  7  8  9  10  11  12  13  14  15  16  26  30  31  32  33  35 0
 6-311+G(2d,p)
 ****
 37  38 0
 6-311+G(2d,p)
 ****
 1  2  3  4  5  17  18  19  20  21  22  23  24  25 0
 3-21G
 ****
 27  28  29  34  36  39  40  41  42  43  44  45  46 0
 3-21G
 ****


