%nproc=1
%NoSave
%Mem=1900MB
#P OB98/GEN NMR

erre ene a

0 1
  C     -159.304     135.510     123.311
  O     -160.689     135.418     123.659
  P     -161.664     134.682     122.617
  C     -161.068     132.142     122.857
  O     -161.916     133.220     123.224
  C     -161.891     131.016     122.233
  O     -161.028     129.952     121.764
  C     -162.866     130.353     123.194
  O     -163.992     131.180     123.441
  C     -163.171     129.061     122.448
  O     -164.148     129.294     121.423
  C     -161.805     128.731     121.810
  N     -161.090     127.669     122.505
  C     -161.462     126.370     122.172
  O     -162.352     126.112     121.364
  N     -160.787     125.371     122.819
  C     -159.819     125.541     123.765
  O     -159.240     124.607     124.303
  C     -159.503     126.936     124.111
  C     -160.143     127.922     123.475
  O     -160.673     134.438     121.388
  O     -162.885     135.477     122.301
  H     -159.761     134.245     121.666
  H     -164.071     128.549     120.793
  H     -161.033     124.422     122.582
  H     -158.759     127.109     124.877
  H     -159.925     128.957     123.720
  H     -161.942     128.421     120.766
  H     -163.567     128.281     123.106
  H     -162.360     130.125     124.140
  H     -162.430     131.428     121.370
  H     -160.547     131.760     123.740
  H     -160.309     132.510     122.160
  P     -164.514     131.258     124.959
  C     -163.039     133.285     125.702
  O     -164.326     132.780     125.425
  O     -163.353     130.470     125.728
  O     -165.881     130.688     125.153
  H     -162.463     130.721     125.432
  H     -163.074     134.377     125.656
  H     -162.303     132.927     124.977
  H     -162.737     132.985     126.708
  H     -158.774     136.020     124.088
  H     -159.202     136.052     122.394
  H     -158.900     134.526     123.190

 3  4  5  6  7  8  9  10  11  12  13  24  28  29  30  31  32 0
 6-311+G(2d,p)
 ****
 33  34 0
 6-311+G(2d,p)
 ****
 1  2  14  15  16  17  18  19  20  21  22  23  25  26  27 0
 3-21G
 ****
 35  36  37  38  39  40  41  42  43  44  45 0
 3-21G
 ****


