%nproc=1
%NoSave
%Mem=1900MB
#P OB98/GEN NMR

erre ene a

0 1
  C       65.121      21.791       4.810
  O       63.921      21.439       4.123
  P       62.793      22.559       3.903
  C       62.161      21.853       1.515
  O       61.711      22.004       2.854
  C       63.033      20.605       1.327
  O       62.346      19.417       1.803
  C       63.449      20.339      -0.127
  O       64.773      19.795      -0.090
  C       62.448      19.286      -0.561
  O       62.871      18.578      -1.716
  C       62.340      18.461       0.724
  N       61.151      17.624       0.752
  C       61.263      16.376       1.365
  O       62.359      15.981       1.763
  N       60.136      15.599       1.483
  C       59.038      15.973       0.904
  N       57.939      15.187       1.060
  C       58.933      17.201       0.093
  C       60.008      17.982       0.082
  O       63.300      23.932       3.617
  O       61.985      22.524       5.289
  H       63.624      17.997      -1.476
  H       61.683      23.430       5.500
  H       58.021      17.429      -0.439
  H       60.029      18.906      -0.477
  H       63.222      17.820       0.851
  H       61.488      19.764      -0.792
  H       63.448      21.236      -0.751
  H       63.932      20.728       1.946
  H       58.033      14.335       1.599
  H       62.736      22.738       1.229
  H       57.034      15.436       0.683
  H       61.292      21.829       0.847
  P       66.005      20.720      -0.540
  C       67.911      19.394       0.627
  O       67.319      19.805      -0.586
  O       66.256      21.594       0.786
  O       65.761      21.621      -1.706
  H       66.688      22.431       0.535
  H       68.600      18.570       0.418
  H       67.159      19.044       1.339
  H       68.475      20.222       1.064
  H       65.761      20.936       4.870
  H       64.881      22.128       5.797
  H       65.620      22.573       4.278

 3  4  5  6  7  8  9  10  11  12  13  23  27  28  29  30  32 0
 6-311+G(2d,p)
 ****
 34  35 0
 6-311+G(2d,p)
 ****
 1  2  14  15  16  17  18  19  20  21  22  24  25  26 0
 3-21G
 ****
 31  33  36  37  38  39  40  41  42  43  44  45  46 0
 3-21G
 ****


