%nproc=1
%NoSave
%Mem=1900MB
#P OB98/GEN NMR

erre ene a

0 1
  C     -104.539     196.570      38.308
  O     -103.625     197.249      37.444
  P     -103.059     198.658      37.971
  C     -103.876     201.119      38.035
  O     -104.130     199.793      37.597
  C     -104.527     202.134      37.090
  O     -103.955     202.098      35.770
  C     -106.023     201.913      36.906
  O     -106.732     202.445      38.012
  C     -106.287     202.668      35.608
  O     -106.485     204.075      35.849
  C     -104.994     202.437      34.812
  N     -107.098     201.079      30.402
  C     -107.371     202.164      31.216
  N     -108.322     203.016      30.787
  N     -106.762     202.385      32.354
  C     -105.833     201.449      32.659
  C     -105.456     200.352      31.920
  C     -106.140     200.112      30.666
  O     -105.916     199.186      29.897
  N     -104.431     199.668      32.526
  C     -104.283     200.278      33.688
  N     -105.065     201.405      33.792
  O     -101.824     198.951      36.997
  O     -102.634     198.628      39.405
  H     -107.429     204.240      36.014
  H     -100.986     198.862      37.490
  H     -107.601     200.950      29.541
  H     -103.611     199.961      34.473
  H     -104.672     203.350      34.296
  H     -107.194     202.312      35.108
  H     -108.828     202.907      29.921
  H     -106.233     200.846      36.773
  H     -108.535     203.818      31.368
  H     -104.347     203.133      37.508
  H     -102.799     201.298      38.083
  H     -104.259     201.233      39.054
  P     -107.545     201.422      38.942
  C     -109.860     200.252      38.828
  O     -108.991     201.225      38.285
  O     -107.836     202.279      40.262
  O     -106.811     200.160      39.266
  H     -107.664     201.731      41.051
  H     -110.893     200.575      38.670
  H     -109.693     200.118      39.900
  H     -109.703     199.301      38.315
  H     -104.844     195.651      37.853
  H     -105.397     197.187      38.476
  H     -104.060     196.363      39.242

 3  4  5  6  7  8  9  10  11  12  23  26  30  31 0
 6-311+G(2d,p)
 ****
 33  35  36  37  38 0
 6-311+G(2d,p)
 ****
 1  2  13  14  15  16  17  18  19  20  21  22  24  25 0
 3-21G
 ****
 27  28  29  32  34  39  40  41  42  43  44  45  46  47  48  49 0
 3-21G
 ****


