%nproc=1
%NoSave
%Mem=1900MB
#P OB98/GEN NMR

erre ene a

0 1
  C      124.512     183.099      59.482
  O      125.025     183.512      58.203
  P      124.033     184.229      57.158
  C      122.881     183.650      54.882
  O      123.529     183.173      56.054
  C      123.011     182.643      53.725
  O      124.426     182.419      53.402
  C      122.394     181.264      54.004
  O      121.895     180.756      52.762
  C      123.601     180.451      54.451
  O      123.398     179.050      54.355
  C      124.663     181.000      53.506
  N      126.046     180.740      53.929
  C      126.695     179.625      53.395
  O      126.167     178.821      52.626
  N      127.994     179.460      53.800
  C      128.679     180.235      54.687
  O      129.826     180.013      55.033
  C      127.925     181.375      55.243
  C      126.668     181.571      54.844
  O      125.039     185.148      56.312
  O      122.955     185.072      57.766
  H      124.203     178.617      54.689
  H      124.661     186.039      56.211
  H      128.494     178.673      53.404
  H      128.434     182.018      55.958
  H      126.097     182.414      55.236
  H      124.513     180.580      52.501
  H      123.818     180.686      55.504
  H      121.591     181.296      54.755
  H      122.550     183.091      52.833
  H      123.337     184.598      54.576
  H      121.827     183.839      55.105
  P      120.295     180.662      52.560
  C      118.455     178.958      53.323
  O      119.822     179.264      53.194
  O      120.225     180.389      50.979
  O      119.549     181.872      52.994
  H      120.860     179.721      50.680
  H      117.885     179.274      52.441
  H      118.053     179.451      54.224
  H      118.342     177.873      53.434
  H      125.296     182.643      60.050
  H      123.720     182.394      59.338
  H      124.139     183.952      60.009

 3  4  5  6  7  8  9  10  11  12  13  23  28  29  30  31  32 0
 6-311+G(2d,p)
 ****
 33  34 0
 6-311+G(2d,p)
 ****
 1  2  14  15  16  17  18  19  20  21  22  24  25  26 0
 3-21G
 ****
 27  35  36  37  38  39  40  41  42  43  44  45 0
 3-21G
 ****


