%nproc=1
%NoSave
%Mem=1900MB
#P OB98/GEN NMR

erre ene a

0 1
  C       87.121     497.223    -319.103
  O       86.107     496.291    -319.413
  H       87.180     497.375    -318.023
  H       88.081     496.829    -319.454
  H       86.927     498.178    -319.606
  P       84.616     496.666    -318.949
  C       84.790     495.365    -316.702
  O       84.166     495.471    -317.974
  C       83.718     495.295    -315.618
  O       83.002     496.548    -315.546
  C       82.659     494.227    -315.873
  O       83.076     492.932    -315.468
  C       81.524     494.739    -315.001
  O       81.797     494.435    -313.624
  C       81.605     496.256    -315.244
  N       76.984     498.018    -316.565
  C       77.523     497.697    -315.365
  N       78.766     497.258    -315.094
  C       79.491     497.158    -316.220
  C       79.079     497.456    -317.512
  C       77.753     497.898    -317.668
  N       77.194     498.192    -318.894
  N       80.101     497.212    -318.412
  C       81.108     496.795    -317.670
  N       80.778     496.716    -316.344
  O       83.733     496.417    -320.260
  O       84.435     498.033    -318.375
  H       81.026     494.735    -313.104
  H       82.852     496.820    -320.162
  H       76.859     497.814    -314.509
  H       82.092     496.533    -318.044
  H       81.329     496.842    -314.358
  H       80.560     494.282    -315.246
  H       82.329     494.227    -316.922
  H       84.209     495.135    -314.652
  H       85.418     496.246    -316.536
  H       76.197     498.357    -318.913
  H       77.711     497.967    -319.728
  H       85.410     494.467    -316.672
  P       83.888     492.046    -316.535
  C       81.974     490.547    -317.443
  O       83.131     490.636    -316.622
  O       85.238     491.695    -315.744
  O       84.153     492.729    -317.835
  H       85.990     491.614    -316.362
  H       81.582     489.552    -317.400
  H       82.234     490.784    -318.453
  H       81.235     491.237    -317.094

 6  7  8  9  10  11  12  13  14  15  25  28  32  33  34  35 0
 6-311+G(2d,p)
 ****
 36  39  40 0
 6-311+G(2d,p)
 ****
 1  2  3  4  5  16  17  18  19  20  21  22  23  24 0
 3-21G
 ****
 26  27  29  30  31  37  38  41  42  43  44  45  46  47 0
 3-21G
 ****
 48 0
 3-21G
 ****


