%nproc=1
%NoSave
%Mem=1900MB
#P OB98/GEN NMR

erre ene a

0 1
  C      497.146     615.390    -215.512
  O      495.829     615.080    -215.105
  H      497.444     614.694    -216.300
  H      497.833     615.279    -214.665
  H      497.197     616.412    -215.900
  P      495.132     616.092    -214.078
  C      493.683     614.457    -212.624
  O      493.740     615.409    -213.669
  C      492.357     613.690    -212.652
  O      491.267     614.649    -212.573
  C      492.150     612.867    -213.920
  O      491.450     611.668    -213.574
  C      491.254     613.746    -214.780
  O      490.524     612.989    -215.747
  C      490.396     614.432    -213.701
  N      489.806     615.675    -214.173
  C      488.477     615.617    -214.622
  O      487.871     614.545    -214.615
  N      487.885     616.760    -215.107
  C      488.577     617.854    -215.192
  N      487.943     618.945    -215.708
  C      489.995     617.952    -214.779
  C      490.526     616.845    -214.287
  O      494.691     617.292    -215.043
  O      495.997     616.508    -212.934
  H      489.879     612.424    -215.274
  H      494.283     616.988    -215.873
  H      490.531     618.887    -214.888
  H      491.566     616.825    -213.940
  H      489.580     613.762    -213.379
  H      491.853     614.487    -215.315
  H      493.089     612.602    -214.416
  H      492.297     613.064    -211.759
  H      486.978     618.820    -215.995
  H      493.798     614.949    -211.648
  H      488.394     619.831    -215.877
  H      494.525     613.760    -212.748
  P      492.251     610.282    -213.475
  C      490.259     608.668    -213.893
  O      491.250     609.128    -212.965
  O      493.558     610.346    -212.760
  O      492.467     609.890    -215.017
  H      493.369     609.525    -215.110
  H      489.664     607.907    -213.432
  H      490.741     608.267    -214.760
  H      489.632     609.486    -214.180

 6  7  8  9  10  11  12  13  14  15  16  26  30  31  32  33  35 0
 6-311+G(2d,p)
 ****
 37  38 0
 6-311+G(2d,p)
 ****
 1  2  3  4  5  17  18  19  20  21  22  23  24  25 0
 3-21G
 ****
 27  28  29  34  36  39  40  41  42  43  44  45  46 0
 3-21G
 ****


