%nproc=1
%NoSave
%Mem=1900MB
#P OB98/GEN NMR

erre ene a

0 1
  C        2.641      24.239      15.700
  O        2.463      22.981      15.082
  H        2.252      25.034      15.057
  H        2.089      24.251      16.644
  H        3.701      24.413      15.907
  P        3.168      22.770      13.656
  C        1.186      23.575      12.173
  O        2.483      23.851      12.685
  C        0.752      24.718      11.262
  O        0.625      25.940      12.025
  C        1.743      25.026      10.147
  O        1.598      24.159       9.035
  C        1.339      26.447       9.794
  O        0.135      26.430       9.006
  C        1.058      27.043      11.182
  N        3.351      31.508      12.194
  C        2.162      31.213      11.624
  N        1.615      29.999      11.410
  C        2.422      29.027      11.863
  C        3.658      29.174      12.472
  C        4.128      30.489      12.631
  N        5.352      30.792      13.183
  N        4.198      27.940      12.779
  C        3.294      27.069      12.379
  N        2.218      27.675      11.789
  O        2.562      21.383      13.133
  O        4.660      22.795      13.654
  H        0.362      26.021       8.149
  H        3.086      21.046      12.380
  H        1.575      32.065      11.293
  H        3.377      25.994      12.483
  H        0.254      27.787      11.167
  H        2.099      26.970       9.208
  H        2.775      25.031      10.515
  H       -0.238      24.477      10.855
  H        0.485      23.482      13.009
  H        5.662      31.749      13.118
  H        5.998      30.040      13.374
  H        1.208      22.635      11.614
  P        2.881      23.297       8.596
  C        3.149      24.833       6.518
  O        3.769      24.251       7.658
  O        2.265      22.239       7.567
  O        3.603      22.638       9.725
  H        2.752      21.393       7.605
  H        3.860      25.438       5.995
  H        2.325      25.440       6.831
  H        2.795      24.058       5.870

 6  7  8  9  10  11  12  13  14  15  25  28  32  33  34  35 0
 6-311+G(2d,p)
 ****
 36  39  40 0
 6-311+G(2d,p)
 ****
 1  2  3  4  5  16  17  18  19  20  21  22  23  24 0
 3-21G
 ****
 26  27  29  30  31  37  38  41  42  43  44  45  46  47 0
 3-21G
 ****
 48 0
 3-21G
 ****


