%nproc=1
%NoSave
%Mem=1900MB
#P OB98/GEN NMR

erre ene a

0 1
  C      -74.978      42.890     215.706
  O      -75.752      42.101     216.618
  P      -77.256      42.560     216.922
  C      -78.433      44.301     218.454
  O      -77.209      43.753     217.991
  C      -78.183      45.241     219.638
  O      -77.822      44.513     220.833
  C      -77.051      46.235     219.399
  O      -77.491      47.369     218.664
  C      -76.714      46.642     220.825
  O      -77.662      47.624     221.291
  C      -76.888      45.323     221.590
  N      -72.975      44.513     224.694
  C      -74.088      45.318     224.854
  N      -74.174      46.001     226.017
  N      -75.031      45.441     223.956
  C      -74.821      44.685     222.854
  C      -73.760      43.853     222.576
  C      -72.717      43.736     223.572
  O      -71.701      43.050     223.480
  N      -73.897      43.258     221.351
  C      -75.046      43.715     220.888
  N      -75.640      44.599     221.759
  O      -77.834      41.339     217.783
  O      -78.079      42.813     215.701
  H      -77.390      47.867     222.196
  H      -78.800      41.275     217.663
  H      -72.278      44.460     225.416
  H      -75.490      43.440     219.941
  H      -77.313      45.471     222.590
  H      -75.723      47.098     220.905
  H      -73.509      45.916     226.772
  H      -76.185      45.746     218.930
  H      -74.999      46.570     226.166
  H      -79.109      45.797     219.836
  H      -79.117      43.503     218.755
  H      -78.927      44.819     217.628
  P      -76.996      47.515     217.146
  C      -74.694      48.052     216.069
  O      -75.516      48.119     217.220
  O      -77.886      48.728     216.598
  O      -77.162      46.287     216.315
  H      -78.057      48.611     215.644
  H      -73.796      48.649     216.248
  H      -75.215      48.450     215.195
  H      -74.396      47.016     215.883
  H      -74.002      42.463     215.604
  H      -74.893      43.888     216.082
  H      -75.461      42.908     214.751

 3  4  5  6  7  8  9  10  11  12  23  26  30  31 0
 6-311+G(2d,p)
 ****
 33  35  36  37  38 0
 6-311+G(2d,p)
 ****
 1  2  13  14  15  16  17  18  19  20  21  22  24  25 0
 3-21G
 ****
 27  28  29  32  34  39  40  41  42  43  44  45  46  47  48  49 0
 3-21G
 ****


