%nproc=1
%NoSave
%Mem=1900MB
#P OB98/GEN NMR

erre ene a

0 1
  C      275.142     140.700      95.714
  O      275.328     142.097      95.595
  H      274.845     140.466      96.742
  H      276.092     140.195      95.500
  H      274.371     140.345      95.030
  P      275.374     142.708      94.111
  C      273.420     144.170      94.993
  O      274.569     144.100      94.163
  C      272.580     145.398      94.629
  O      273.144     146.561      95.307
  C      272.531     145.709      93.126
  O      271.224     146.195      92.792
  C      273.519     146.855      92.987
  O      273.272     147.644      91.830
  C      273.282     147.587      94.304
  N      275.374     151.929      92.891
  C      274.169     151.356      92.535
  N      273.425     152.011      91.625
  N      273.724     150.235      93.045
  C      274.558     149.695      93.967
  C      275.780     150.155      94.395
  C      276.270     151.393      93.819
  O      277.336     151.936      94.070
  N      276.344     149.287      95.299
  C      275.479     148.294      95.391
  N      274.377     148.494      94.602
  O      274.397     141.735      93.296
  O      276.731     142.780      93.492
  H      272.344     147.945      91.857
  H      274.918     141.031      92.861
  H      275.673     152.790      92.461
  H      275.608     147.407      95.996
  H      272.362     148.189      94.293
  H      274.539     146.460      92.929
  H      273.674     152.898      91.213
  H      272.780     144.848      92.492
  H      272.516     151.630      91.384
  H      271.562     145.250      95.032
  H      273.742     144.254      96.040
  H      272.828     143.263      94.877
  P      270.096     145.129      92.387
  C      268.386     147.081      92.544
  O      268.807     145.920      91.849
  O      269.612     144.561      93.807
  O      270.595     144.030      91.499
  H      269.376     143.613      93.722
  H      267.521     147.489      92.065
  H      269.173     147.806      92.537
  H      268.146     146.824      93.555

 6  7  8  9  10  11  12  13  14  15  26  29  33  34 0
 6-311+G(2d,p)
 ****
 36  38  39  40  41 0
 6-311+G(2d,p)
 ****
 1  2  3  4  5  16  17  18  19  20  21  22  23  24  25 0
 3-21G
 ****
 27  28  30  31  32  35  37  42  43  44  45  46  47 0
 3-21G
 ****
 48  49 0
 3-21G
 ****


