%nproc=1
%NoSave
%Mem=1900MB
#P OB98/GEN NMR

erre ene a

0 1
  C      121.025     -98.128     141.424
  O      121.104     -96.708     141.573
  P      121.731     -95.872     140.353
  C      119.616     -94.343     140.200
  O      120.481     -95.260     139.552
  C      118.539     -93.835     139.234
  O      119.141     -92.940     138.252
  C      117.803     -94.941     138.469
  O      116.435     -94.523     138.349
  C      118.479     -94.925     137.111
  O      117.661     -95.497     136.101
  C      118.754     -93.427     136.950
  N      119.776     -93.144     135.945
  C      120.233     -91.835     135.862
  O      119.761     -90.920     136.533
  N      121.222     -91.604     134.945
  C      121.729     -92.519     134.068
  O      122.616     -92.257     133.264
  C      121.126     -93.859     134.125
  C      120.191     -94.104     135.046
  O      122.272     -97.043     139.412
  O      122.759     -94.882     140.793
  H      121.698     -97.828     139.401
  H      116.832     -94.981     136.031
  H      121.590     -90.666     134.891
  H      121.461     -94.595     133.405
  H      119.711     -95.073     135.100
  H      117.835     -92.898     136.665
  H      119.418     -95.487     137.156
  H      117.851     -95.911     138.971
  H      117.820     -93.242     139.813
  H      120.191     -93.487     140.568
  H      119.169     -94.826     141.074
  P      115.281     -95.577     138.739
  C      115.430     -95.187     141.322
  O      115.579     -96.068     140.233
  O      115.738     -96.831     137.850
  O      113.889     -95.130     138.438
  H      116.685     -97.026     137.925
  H      115.446     -95.767     142.248
  H      114.481     -94.647     141.268
  H      116.259     -94.475     141.341
  H      120.591     -98.555     142.304
  H      122.008     -98.527     141.281
  H      120.417     -98.364     140.576

 3  4  5  6  7  8  9  10  11  12  13  24  28  29  30  31  32 0
 6-311+G(2d,p)
 ****
 33  34 0
 6-311+G(2d,p)
 ****
 1  2  14  15  16  17  18  19  20  21  22  23  25  26  27 0
 3-21G
 ****
 35  36  37  38  39  40  41  42  43  44  45 0
 3-21G
 ****


