%nproc=1
%NoSave
%Mem=1900MB
#P OB98/GEN NMR

erre ene a

0 1
  C       56.404    -859.285    -462.377
  O       55.664    -858.081    -462.426
  H       57.149    -859.211    -461.584
  H       56.919    -859.458    -463.327
  H       55.739    -860.130    -462.156
  P       54.576    -857.896    -463.585
  C       52.446    -859.221    -464.213
  O       53.301    -858.779    -463.169
  C       51.698    -860.496    -463.806
  O       52.674    -861.541    -463.517
  C       50.831    -860.324    -462.542
  O       49.728    -861.234    -462.650
  C       51.793    -860.788    -461.456
  O       51.118    -861.032    -460.243
  C       52.449    -861.979    -462.160
  N       53.684    -862.393    -461.507
  C       53.559    -862.895    -460.213
  O       52.453    -862.957    -459.675
  N       54.691    -863.294    -459.544
  C       55.855    -863.138    -460.097
  N       56.936    -863.531    -459.378
  C       56.033    -862.554    -461.444
  C       54.915    -862.218    -462.091
  O       55.072    -858.119    -464.978
  O       54.052    -856.396    -463.386
  H       50.341    -861.617    -460.383
  H       54.436    -855.819    -464.076
  H       57.022    -862.426    -461.857
  H       54.951    -861.781    -463.084
  H       51.764    -862.839    -462.195
  H       52.536    -860.009    -461.246
  H       50.471    -859.301    -462.402
  H       51.092    -860.842    -464.648
  H       56.765    -863.920    -458.453
  H       53.072    -859.420    -465.089
  H       57.886    -863.440    -459.696
  H       51.725    -858.437    -464.466
  P       48.406    -860.885    -463.486
  C       48.129    -860.582    -466.039
  O       48.554    -861.441    -464.985
  O       47.993    -859.446    -463.415
  O       47.258    -861.824    -462.865
  H       46.401    -861.365    -462.933
  H       48.281    -861.069    -466.979
  H       48.697    -859.676    -466.011
  H       47.090    -860.356    -465.918

 6  7  8  9  10  11  12  13  14  15  16  26  30  31  32  33  35 0
 6-311+G(2d,p)
 ****
 37  38 0
 6-311+G(2d,p)
 ****
 1  2  3  4  5  17  18  19  20  21  22  23  24  25 0
 3-21G
 ****
 27  28  29  34  36  39  40  41  42  43  44  45  46 0
 3-21G
 ****


