%nproc=1
%NoSave
%Mem=1900MB
#P OB98/GEN NMR

erre ene a

0 1
  C      472.521    -141.688     251.469
  O      471.519    -141.533     252.480
  P      471.846    -140.580     253.729
  C      472.973    -138.243     253.952
  O      472.144    -139.102     253.183
  C      473.137    -136.886     253.257
  O      473.800    -137.005     251.984
  C      471.812    -136.189     252.961
  O      471.317    -135.508     254.105
  C      472.237    -135.196     251.893
  O      472.860    -134.048     252.519
  C      473.272    -135.993     251.095
  N      473.793    -136.621     246.034
  C      474.483    -135.878     246.932
  N      474.278    -135.747     248.253
  C      473.233    -136.503     248.646
  C      472.430    -137.315     247.850
  C      472.749    -137.358     246.483
  N      472.043    -138.127     245.579
  N      471.453    -137.926     248.602
  C      471.672    -137.505     249.836
  N      472.727    -136.638     249.914
  O      473.287    -141.093     254.200
  O      470.844    -140.670     254.830
  H      472.144    -133.522     252.924
  H      473.364    -141.016     255.170
  H      475.325    -135.308     246.519
  H      471.091    -137.805     250.705
  H      474.117    -135.371     250.763
  H      471.393    -134.815     251.310
  H      471.078    -136.898     252.546
  H      473.750    -136.245     253.907
  H      473.952    -138.704     254.105
  H      472.349    -138.119     244.617
  H      471.277    -138.690     245.914
  H      472.533    -138.123     254.953
  P      470.108    -136.205     254.910
  C      470.004    -137.946     256.846
  O      470.802    -137.280     255.887
  O      469.403    -137.104     253.783
  O      469.164    -135.251     255.551
  H      468.445    -137.194     253.985
  H      470.541    -138.826     257.197
  H      469.049    -138.262     256.414
  H      469.821    -137.280     257.697
  H      472.160    -142.348     250.708
  H      473.408    -142.098     251.905
  H      472.744    -140.734     251.038

 3  4  5  6  7  8  9  10  11  12  22  25  29  30  31  32 0
 6-311+G(2d,p)
 ****
 33  36  37 0
 6-311+G(2d,p)
 ****
 1  2  13  14  15  16  17  18  19  20  21  23  24  26 0
 3-21G
 ****
 27  28  34  35  38  39  40  41  42  43  44  45  46  47  48 0
 3-21G
 ****


