%nproc=1
%NoSave
%Mem=1900MB
#P OB98/GEN NMR

erre ene a

0 1
  C       35.240     228.160      51.210
  O       36.246     228.748      52.015
  P       37.260     229.775      51.306
  C       39.354     229.270      52.755
  O       38.330     230.198      52.423
  C       40.334     229.861      53.773
  O       41.270     230.721      53.080
  C       39.664     230.681      54.879
  O       40.383     230.447      56.090
  C       39.891     232.115      54.440
  O       39.853     233.015      55.546
  C       41.254     232.003      53.740
  N       41.482     233.094      52.797
  C       42.635     233.861      52.985
  O       43.362     233.655      53.956
  N       42.908     234.875      52.099
  C       42.049     235.167      51.174
  N       42.365     236.178      50.321
  C       40.761     234.461      51.020
  C       40.555     233.433      51.841
  O       36.368     231.090      51.129
  O       37.825     229.292      50.010
  H       40.330     232.597      56.297
  H       36.629     231.581      50.326
  H       40.061     234.766      50.254
  H       39.649     232.844      51.786
  H       42.069     232.005      54.479
  H       39.115     232.414      53.725
  H       38.611     230.425      55.019
  H       40.912     229.037      54.208
  H       43.245     236.655      50.457
  H       39.917     229.019      51.849
  H       41.755     236.474      49.570
  H       38.902     228.352      53.142
  P       39.566     229.859      57.341
  C       40.639     231.271      59.198
  O       40.562     229.997      58.589
  O       39.634     228.281      57.050
  O       38.159     230.310      57.540
  H       39.110     227.802      57.717
  H       41.239     231.190      60.107
  H       39.641     231.629      59.463
  H       41.125     231.979      58.519
  H       34.643     227.504      51.808
  H       35.697     227.604      50.418
  H       34.620     228.928      50.796

 3  4  5  6  7  8  9  10  11  12  13  21  23  27  28  29  30  32 0
 6-311+G(2d,p)
 ****
 34  35 0
 6-311+G(2d,p)
 ****
 1  2  14  15  16  17  18  19  20  22  24  25  26 0
 3-21G
 ****
 31  33  36  37  38  39  40  41  42  43  44  45  46 0
 3-21G
 ****


