%nproc=1
%NoSave
%Mem=1900MB
#P OB98/GEN NMR

erre ene a

0 1
  C     -807.185    -702.860    -706.818
  O     -807.274    -701.805    -705.886
  H     -806.148    -703.193    -706.881
  H     -807.491    -702.507    -707.807
  H     -807.809    -703.712    -706.516
  P     -808.728    -701.245    -705.487
  C     -810.648    -700.120    -706.777
  O     -809.263    -700.401    -706.737
  C     -810.876    -698.710    -707.349
  O     -810.338    -698.650    -708.692
  C     -812.347    -698.332    -707.487
  O     -812.912    -697.984    -706.243
  C     -812.260    -697.196    -708.482
  O     -811.892    -695.965    -707.838
  C     -811.137    -697.671    -709.419
  N     -811.633    -698.219    -710.673
  C     -811.964    -697.307    -711.662
  O     -811.834    -696.090    -711.532
  N     -812.501    -697.845    -712.806
  C     -812.867    -699.140    -712.991
  O     -813.570    -699.517    -713.911
  C     -812.438    -700.069    -711.925
  C     -811.854    -699.587    -710.833
  O     -808.817    -700.549    -704.166
  O     -809.652    -702.558    -705.520
  H     -809.815    -702.858    -704.607
  H     -811.617    -695.359    -708.562
  H     -812.777    -697.169    -713.525
  H     -812.643    -701.126    -712.071
  H     -811.568    -700.255    -710.048
  H     -810.442    -696.834    -709.653
  H     -813.203    -697.031    -709.008
  H     -812.905    -699.165    -707.933
  H     -810.337    -697.987    -706.750
  H     -811.041    -700.135    -705.737
  H     -811.163    -700.862    -707.369
  P     -814.212    -698.758    -705.689
  C     -816.632    -699.181    -706.418
  O     -815.422    -698.475    -706.692
  O     -814.528    -698.529    -704.253
  O     -813.864    -700.302    -705.958
  H     -814.055    -700.806    -705.131
  H     -817.371    -698.919    -707.146
  H     -816.984    -698.919    -705.442
  H     -816.448    -700.234    -706.460

 6  7  8  9  10  11  12  13  14  15  16  27  31  32  33  34  35 0
 6-311+G(2d,p)
 ****
 36  37 0
 6-311+G(2d,p)
 ****
 1  2  3  4  5  17  18  19  20  21  22  23  24  25 0
 3-21G
 ****
 26  28  29  30  38  39  40  41  42  43  44  45 0
 3-21G
 ****


