%nproc=1
%NoSave
%Mem=1900MB
#P OB98/GEN NMR

erre ene a

0 1
  C     -186.590    1976.540    -110.834
  O     -186.164    1975.518    -109.990
  P     -184.654    1975.564    -109.379
  C     -185.377    1976.260    -106.986
  O     -184.673    1976.629    -108.190
  C     -185.305    1977.340    -105.904
  O     -183.916    1977.486    -105.448
  C     -185.792    1978.688    -106.314
  O     -186.473    1979.288    -105.136
  C     -184.528    1979.443    -106.623
  O     -184.706    1980.832    -106.665
  C     -183.593    1978.868    -105.547
  N     -182.169    1979.066    -105.842
  C     -181.543    1980.156    -105.246
  O     -182.213    1980.953    -104.573
  N     -180.190    1980.324    -105.393
  C     -179.587    1979.515    -106.255
  N     -178.188    1979.672    -106.432
  C     -180.259    1978.478    -107.039
  C     -181.532    1978.301    -106.781
  O     -183.573    1975.730    -110.391
  O     -184.533    1974.163    -108.605
  H     -183.837    1981.259    -106.771
  H     -183.596    1973.874    -108.653
  H     -179.714    1977.926    -107.797
  H     -182.135    1977.550    -107.304
  H     -183.830    1979.369    -104.567
  H     -184.137    1979.145    -107.647
  H     -186.523    1978.705    -107.124
  H     -185.870    1976.966    -105.018
  H     -177.769    1980.464    -105.880
  H     -184.949    1975.313    -106.620
  H     -177.625    1979.074    -107.016
  H     -186.399    1976.023    -107.242
  P     -187.956    1978.808    -104.820
  C     -187.548    1976.889    -103.138
  O     -187.934    1977.269    -104.440
  O     -188.668    1978.825    -106.231
  O     -188.732    1979.761    -103.897
  H     -189.627    1978.999    -106.130
  H     -187.818    1975.841    -102.970
  H     -188.045    1977.521    -102.373
  H     -186.485    1976.968    -102.995
  H     -187.598    1976.353    -111.140
  H     -185.957    1976.578    -111.696
  H     -186.543    1977.474    -110.315

 3  4  5  6  7  8  9  10  11  12  13  23  27  28  29  30  32 0
 6-311+G(2d,p)
 ****
 34  35 0
 6-311+G(2d,p)
 ****
 1  2  14  15  16  17  18  19  20  21  22  24  25  26 0
 3-21G
 ****
 31  33  36  37  38  39  40  41  42  43  44  45  46 0
 3-21G
 ****


