%nproc=1
%NoSave
%Mem=1900MB
#P OB98/GEN NMR

erre ene a

0 1
  C      267.813     188.046     -61.496
  O      267.716     187.218     -60.334
  P      267.782     185.628     -60.524
  C      270.266     185.437     -61.221
  O      269.285     185.140     -60.227
  C      271.617     185.771     -60.569
  O      271.544     187.096     -59.986
  C      272.026     184.836     -59.423
  O      272.769     183.665     -59.738
  C      272.962     185.742     -58.625
  O      274.279     185.718     -59.205
  C      272.356     187.130     -58.791
  N      272.491     188.790     -53.952
  C      273.472     188.474     -54.823
  N      273.349     188.043     -56.098
  C      272.058     187.950     -56.455
  C      270.951     188.243     -55.668
  C      271.203     188.676     -54.358
  N      270.208     188.985     -53.460
  N      269.781     188.022     -56.373
  C      270.181     187.589     -57.555
  N      271.545     187.546     -57.658
  O      267.169     185.092     -61.771
  O      266.997     185.094     -59.226
  H      274.599     184.798     -59.130
  H      266.473     184.308     -59.478
  H      274.485     188.588     -54.455
  H      269.521     187.302     -58.358
  H      273.113     187.907     -58.937
  H      273.072     185.413     -57.584
  H      271.155     184.567     -58.808
  H      272.394     185.778     -61.340
  H      269.925     186.289     -61.821
  H      270.472     189.248     -52.527
  H      269.239     188.852     -53.723
  H      270.320     184.580     -61.893
  P      272.197     182.198     -59.419
  C      272.371     180.930     -61.705
  O      272.941     181.213     -60.440
  O      270.708     182.087     -59.428
  O      272.885     181.856     -58.020
  H      273.844     181.722     -58.064
  H      273.124     180.427     -62.317
  H      272.062     181.847     -62.210
  H      271.517     180.260     -61.580
  H      267.753     189.075     -61.207
  H      267.011     187.816     -62.166
  H      268.748     187.867     -61.985

 3  4  5  6  7  8  9  10  11  12  22  25  29  30  31  32 0
 6-311+G(2d,p)
 ****
 33  36  37 0
 6-311+G(2d,p)
 ****
 1  2  13  14  15  16  17  18  19  20  21  23  24  26 0
 3-21G
 ****
 27  28  34  35  38  39  40  41  42  43  44  45  46  47  48 0
 3-21G
 ****


