%nproc=1
%NoSave
%Mem=1900MB
#P OB98/GEN NMR

erre ene a

0 1
  C     -198.980    -564.499      44.329
  O     -199.788    -564.217      43.201
  H     -198.069    -563.899      44.264
  H     -198.700    -565.555      44.339
  H     -199.504    -564.240      45.254
  P     -201.257    -564.854      43.126
  C     -201.731    -563.004      41.392
  O     -201.903    -564.371      41.745
  C     -201.669    -562.864      39.873
  O     -202.697    -563.662      39.254
  C     -201.893    -561.440      39.378
  O     -200.744    -560.642      39.571
  C     -202.253    -561.699      37.922
  O     -201.072    -561.909      37.133
  C     -203.083    -562.996      38.031
  N     -204.527    -562.751      37.995
  C     -205.130    -562.810      36.740
  O     -204.511    -563.021      35.699
  N     -206.481    -562.588      36.722
  C     -207.245    -562.207      37.787
  O     -208.440    -561.935      37.697
  C     -206.550    -562.136      39.078
  C     -205.243    -562.410      39.122
  O     -202.114    -564.648      44.333
  O     -200.980    -566.411      42.867
  H     -201.376    -562.248      36.266
  H     -201.138    -566.909      43.689
  H     -206.938    -562.611      35.824
  H     -207.123    -561.853      39.950
  H     -204.709    -562.357      40.064
  H     -202.832    -563.676      37.206
  H     -202.793    -560.862      37.478
  H     -202.759    -560.999      39.882
  H     -200.692    -563.245      39.533
  H     -200.795    -562.644      41.831
  H     -202.564    -562.424      41.804
  P     -200.897    -559.126      40.063
  C     -198.419    -559.404      40.682
  O     -199.425    -558.509      40.222
  O     -201.800    -558.921      41.234
  O     -201.469    -558.366      38.772
  H     -202.336    -557.978      38.986
  H     -197.485    -558.886      40.749
  H     -198.326    -560.220      39.996
  H     -198.689    -559.779      41.647

 6  7  8  9  10  11  12  13  14  15  16  26  31  32  33  34  35 0
 6-311+G(2d,p)
 ****
 36  37 0
 6-311+G(2d,p)
 ****
 1  2  3  4  5  17  18  19  20  21  22  23  24  25 0
 3-21G
 ****
 27  28  29  30  38  39  40  41  42  43  44  45 0
 3-21G
 ****


