%nproc=1
%NoSave
%Mem=1900MB
#P OB98/GEN NMR

erre ene a

0 1
  C       62.411     -16.387      31.966
  O       62.556     -16.460      33.378
  P       61.242     -16.782      34.244
  C       61.245     -14.420      35.302
  O       60.524     -15.372      34.528
  C       60.487     -13.098      35.375
  O       60.320     -12.575      34.028
  C       59.088     -13.204      36.006
  O       58.887     -12.101      36.902
  C       58.149     -13.015      34.825
  O       56.881     -12.510      35.226
  C       58.974     -12.055      33.967
  N       57.245      -8.832      30.481
  C       57.842      -8.576      31.700
  N       57.937      -7.276      32.064
  N       58.300      -9.506      32.495
  C       58.166     -10.758      31.989
  C       57.601     -11.137      30.792
  C       57.043     -10.098      29.950
  O       56.424     -10.267      28.900
  N       57.663     -12.498      30.620
  C       58.259     -12.942      31.709
  N       58.538     -11.929      32.595
  O       61.850     -17.194      35.669
  O       60.366     -17.857      33.700
  H       56.499     -13.158      35.847
  H       61.529     -18.081      35.919
  H       56.892      -8.075      29.915
  H       58.476     -13.984      31.918
  H       58.979     -11.049      34.409
  H       58.002     -13.978      34.323
  H       57.636      -6.507      31.484
  H       58.903     -14.145      36.532
  H       58.394      -7.067      32.944
  H       61.104     -12.372      35.922
  H       62.224     -14.248      34.841
  H       61.396     -14.822      36.310
  P       57.997     -12.407      38.204
  C       55.992     -11.162      37.093
  O       56.471     -12.339      37.715
  O       58.171     -11.082      39.091
  O       58.399     -13.643      38.937
  H       58.015     -11.279      40.034
  H       56.799     -10.456      36.865
  H       55.274     -10.675      37.756
  H       55.489     -11.432      36.160
  H       63.359     -16.168      31.521
  H       61.713     -15.614      31.719
  H       62.051     -17.324      31.595

 3  4  5  6  7  8  9  10  11  12  23  26  30  31  33  0
 6-311+G(2d,p)
 ****
 35  36  37  38 0
 6-311+G(2d,p)
 ****
 1  2  13  14  15  16  17  18  19  20  21  22  24  25  27  28  29 0
 3-21G
 ****
 32  34  39  40  41  42  43  44  45  46  47  48  49 0
 3-21G
 ****


