%nproc=1
%NoSave
%Mem=1900MB
#P OB98/GEN NMR

erre ene a

0 1
  C      -68.729      79.187     -28.798
  O      -70.037      79.002     -28.301
  H      -68.298      78.208     -29.019
  H      -68.113      79.680     -28.041
  H      -68.733      79.783     -29.714
  P      -71.021      80.261     -28.235
  C      -72.374      80.738     -30.381
  O      -72.259      79.948     -29.208
  C      -73.576      80.301     -31.227
  O      -73.531      78.868     -31.428
  C      -74.884      80.606     -30.492
  O      -75.962      80.844     -31.392
  C      -75.148      79.318     -29.727
  O      -76.516      79.158     -29.362
  C      -74.638      78.278     -30.722
  N      -76.018      73.690     -28.991
  C      -76.809      74.724     -29.451
  N      -78.144      74.516     -29.426
  N      -76.333      75.863     -29.880
  C      -74.986      75.958     -29.778
  C      -74.099      75.013     -29.316
  C      -74.635      73.741     -28.882
  O      -73.983      72.795     -28.447
  N      -72.808      75.479     -29.345
  C      -72.914      76.705     -29.815
  N      -74.214      77.038     -30.106
  O      -70.232      81.404     -29.036
  O      -71.399      80.719     -26.859
  H      -76.607      78.282     -28.941
  H      -70.523      82.286     -28.744
  H      -76.435      72.827     -28.687
  H      -72.086      77.386     -29.968
  H      -75.415      78.033     -31.458
  H      -74.568      79.345     -28.801
  H      -78.559      73.733     -28.945
  H      -74.788      81.459     -29.820
  H      -78.737      75.349     -29.476
  H      -73.530      80.763     -32.218
  H      -71.448      80.608     -30.952
  H      -72.452      81.796     -30.119
  P      -76.910      82.102     -31.097
  C      -75.522      84.133     -32.008
  O      -76.591      83.224     -32.196
  O      -76.322      82.704     -29.738
  O      -78.354      81.751     -30.978
  H      -76.910      82.487     -28.991
  H      -75.470      84.800     -32.843
  H      -74.603      83.591     -31.926
  H      -75.685      84.695     -31.113

 6  7  8  9  10  11  12  13  14  15  26  29  33  34 0
 6-311+G(2d,p)
 ****
 36  38  39  40  41 0
 6-311+G(2d,p)
 ****
 1  2  3  4  5  16  17  18  19  20  21  22  23  24  25 0
 3-21G
 ****
 27  28  30  31  32  35  37  42  43  44  45  46  47 0
 3-21G
 ****
 48  49 0
 3-21G
 ****


