%nproc=1
%NoSave
%Mem=1900MB
#P OB98/GEN NMR

erre ene a

0 1
  C      -72.992    -456.882     477.281
  O      -73.249    -456.712     475.881
  P      -72.261    -455.763     475.043
  C      -70.303    -457.415     474.579
  O      -70.756    -456.262     475.274
  C      -69.016    -457.104     473.804
  O      -67.995    -456.557     474.664
  C      -68.385    -458.326     473.152
  O      -69.010    -458.638     471.915
  C      -66.968    -457.832     472.918
  O      -66.926    -457.006     471.735
  C      -66.707    -456.985     474.165
  N      -63.132    -456.628     477.820
  C      -63.574    -455.743     476.898
  N      -64.514    -455.918     475.947
  C      -65.028    -457.155     476.015
  C      -64.679    -458.166     476.895
  C      -63.682    -457.869     477.835
  N      -63.237    -458.775     478.773
  N      -65.419    -459.303     476.652
  C      -66.212    -458.980     475.650
  N      -66.010    -457.696     475.225
  O      -72.319    -454.380     475.847
  O      -72.662    -455.586     473.614
  H      -65.988    -456.761     471.596
  H      -72.239    -453.633     475.226
  H      -63.105    -454.759     476.931
  H      -66.947    -459.639     475.204
  H      -66.119    -456.081     473.945
  H      -66.259    -458.650     472.758
  H      -68.378    -459.180     473.848
  H      -69.257    -456.358     473.033
  H      -71.079    -457.763     473.891
  H      -62.537    -458.477     479.432
  H      -63.666    -459.692     478.801
  H      -70.139    -458.222     475.298
  P      -69.751    -460.063     471.809
  C      -72.174    -459.289     472.353
  O      -71.014    -459.972     472.793
  O      -68.741    -461.051     472.560
  O      -70.038    -460.502     470.412
  H      -68.807    -461.948     472.178
  H      -73.013    -459.578     472.994
  H      -72.415    -459.553     471.323
  H      -72.023    -458.207     472.433
  H      -73.727    -457.536     477.702
  H      -73.038    -455.931     477.770
  H      -72.019    -457.306     477.416

 3  4  5  6  7  8  9  10  11  12  22  25  29  30  31  32 0
 6-311+G(2d,p)
 ****
 33  36  37 0
 6-311+G(2d,p)
 ****
 1  2  13  14  15  16  17  18  19  20  21  23  24  26 0
 3-21G
 ****
 27  28  34  35  38  39  40  41  42  43  44  45  46  47  48 0
 3-21G
 ****


