%nproc=1
%NoSave
%Mem=1900MB
#P OB98/GEN NMR

erre ene a

0 1
  C      287.365     384.646     558.831
  O      287.625     385.256     557.565
  P      289.114     385.747     557.228
  C      290.007     387.794     555.941
  O      289.040     386.752     555.975
  C      289.631     388.850     554.902
  O      288.980     388.256     553.762
  C      288.650     389.886     555.426
  O      289.302     390.799     556.298
  C      288.116     390.484     554.141
  O      289.025     391.488     553.621
  C      288.103     389.267     553.203
  N      286.758     388.732     552.989
  C      286.217     388.933     551.706
  O      286.855     389.558     550.855
  N      284.968     388.425     551.430
  C      284.321     387.781     552.351
  N      283.090     387.309     552.023
  C      284.853     387.563     553.709
  C      286.065     388.062     553.958
  O      290.144     384.662     557.121
  O      289.451     386.740     558.448
  H      288.539     391.949     552.901
  H      290.411     386.718     558.611
  H      284.267     387.010     554.444
  H      286.522     387.942     554.936
  H      288.519     389.529     552.214
  H      287.157     390.976     554.277
  H      287.829     389.384     555.964
  H      290.547     389.340     554.565
  H      282.745     387.479     551.083
  H      290.987     387.376     555.704
  H      282.526     386.749     552.654
  H      290.082     388.228     556.945
  P      289.760     390.260     557.740
  C      289.194     392.536     558.831
  O      290.165     391.530     558.637
  O      291.184     389.571     557.422
  O      288.820     389.279     558.379
  H      291.304     388.801     558.000
  H      289.486     393.141     559.689
  H      288.206     392.118     559.027
  H      289.149     393.174     557.947
  H      286.331     384.380     558.893
  H      287.603     385.335     559.614
  H      287.966     383.767     558.934

 3  4  5  6  7  8  9  10  11  12  13  23  27  28  29  30  32 0
 6-311+G(2d,p)
 ****
 34  35 0
 6-311+G(2d,p)
 ****
 1  2  14  15  16  17  18  19  20  21  22  24  25  26 0
 3-21G
 ****
 31  33  36  37  38  39  40  41  42  43  44  45  46 0
 3-21G
 ****


