%nproc=1
%NoSave
%Mem=1900MB
#P OB98/GEN NMR

erre ene a

0 1
  C      514.956      23.125     435.835
  O      515.537      21.923     435.368
  P      516.574      21.098     436.262
  C      519.081      20.647     435.842
  O      518.042      21.630     435.867
  C      520.457      21.338     435.816
  O      520.570      22.101     434.575
  C      520.660      22.310     436.995
  O      521.868      22.083     437.731
  C      520.554      23.671     436.328
  O      521.154      24.722     437.059
  C      521.119      23.384     434.934
  N      520.786      24.427     433.959
  C      521.276      25.708     434.218
  O      521.979      26.008     435.172
  N      520.892      26.679     433.339
  C      519.987      26.533     432.321
  O      519.608      27.467     431.637
  C      519.466      25.165     432.132
  C      519.897      24.185     432.939
  O      516.433      19.617     436.215
  O      516.384      21.733     437.722
  H      520.880      25.569     436.661
  H      516.554      22.683     437.780
  H      521.241      27.613     433.497
  H      518.741      25.022     431.346
  H      519.529      23.169     432.817
  H      522.204      23.275     434.961
  H      519.489      23.921     436.244
  H      519.864      22.200     437.737
  H      521.216      20.553     435.807
  H      518.971      20.033     434.947
  H      518.984      19.992     436.711
  P      521.982      22.138     439.331
  C      521.421      23.851     441.212
  O      521.493      23.573     439.829
  O      523.292      21.693     439.884
  O      520.801      21.169     439.827
  H      521.042      20.770     440.677
  H      520.648      24.599     441.381
  H      522.383      24.247     441.548
  H      521.175      22.945     441.787
  H      514.296      23.515     435.089
  H      515.727      23.839     436.037
  H      514.406      22.930     436.732

 3  4  5  6  7  8  9  10  11  12  13  23  28  29  30  31  32 0
 6-311+G(2d,p)
 ****
 33  34 0
 6-311+G(2d,p)
 ****
 1  2  14  15  16  17  18  19  20  21  22  24  25  26  27 0
 3-21G
 ****
 35  36  37  38  39  40  41  42  43  44  45 0
 3-21G
 ****


