%nproc=1
%NoSave
%Mem=1900MB
#P OB98/GEN NMR

erre ene a

0 1
  C     -294.443      -4.516    -533.248
  O     -294.731      -5.393    -534.345
  P     -295.816      -6.549    -534.098
  C     -297.451      -5.335    -535.745
  O     -297.236      -5.891    -534.457
  C     -298.913      -4.896    -535.889
  O     -299.297      -4.049    -534.776
  C     -299.202      -4.088    -537.142
  O     -299.228      -4.906    -538.296
  C     -300.538      -3.454    -536.771
  O     -301.608      -4.388    -536.980
  C     -300.358      -3.186    -535.263
  N     -300.089      -1.786    -534.957
  C     -301.150      -0.906    -535.146
  O     -302.248      -1.264    -535.568
  N     -300.898       0.404    -534.850
  C     -299.708       0.915    -534.423
  O     -299.543       2.102    -534.165
  C     -298.607      -0.054    -534.288
  C     -298.846      -1.340    -534.557
  O     -295.812      -6.641    -532.501
  O     -295.486      -7.821    -534.809
  H     -295.677      -5.782    -532.072
  H     -301.547      -4.665    -537.920
  H     -301.660       1.057    -534.969
  H     -297.639       0.318    -533.979
  H     -298.045      -2.069    -534.470
  H     -301.264      -3.481    -534.717
  H     -300.759      -2.564    -537.369
  H     -298.439      -3.304    -537.262
  H     -299.541      -5.801    -535.864
  H     -297.225      -6.075    -536.513
  H     -296.772      -4.489    -535.887
  P     -297.959      -4.819    -539.280
  C     -297.447      -7.364    -538.967
  O     -296.994      -6.029    -538.889
  O     -297.212      -3.526    -538.703
  O     -298.328      -4.726    -540.729
  H     -297.165      -3.507    -537.736
  H     -296.584      -8.032    -539.007
  H     -298.056      -7.521    -539.862
  H     -298.040      -7.602    -538.075
  H     -293.708      -3.798    -533.548
  H     -294.068      -5.087    -532.424
  H     -295.337      -4.008    -532.953

 3  4  5  6  7  8  9  10  11  12  13  24  28  29  30  31  32 0
 6-311+G(2d,p)
 ****
 33  34 0
 6-311+G(2d,p)
 ****
 1  2  14  15  16  17  18  19  20  21  22  23  25  26  27 0
 3-21G
 ****
 35  36  37  38  39  40  41  42  43  44  45 0
 3-21G
 ****


