%nproc=1
%NoSave
%Mem=1900MB
#P OB98/GEN NMR

erre ene a

0 1
  C     -173.931     266.432    -474.553
  O     -173.002     267.496    -474.650
  H     -173.468     265.528    -474.958
  H     -174.823     266.659    -475.139
  H     -174.205     266.251    -473.510
  P     -173.350     268.890    -473.943
  C     -171.147     270.179    -473.550
  O     -172.245     269.948    -474.430
  C     -170.493     271.522    -473.880
  O     -169.852     271.457    -475.171
  C     -171.476     272.685    -473.964
  O     -171.879     273.106    -472.670
  C     -170.647     273.700    -474.735
  O     -169.715     274.370    -473.868
  C     -169.903     272.790    -475.744
  N     -170.520     272.760    -477.064
  C     -170.522     273.961    -477.779
  O     -170.065     275.012    -477.321
  N     -171.084     273.915    -479.022
  C     -171.711     272.837    -479.586
  O     -172.242     272.867    -480.690
  C     -171.706     271.606    -478.779
  C     -171.123     271.629    -477.575
  O     -173.557     268.839    -472.463
  O     -174.671     269.381    -474.706
  H     -170.247     274.824    -473.189
  H     -175.455     269.187    -474.160
  H     -171.108     274.775    -479.547
  H     -172.197     270.732    -479.190
  H     -171.119     270.728    -476.962
  H     -168.863     273.117    -475.857
  H     -171.256     274.472    -475.204
  H     -172.346     272.409    -474.572
  H     -169.722     271.718    -473.125
  H     -170.417     269.377    -473.680
  H     -171.514     270.165    -472.517
  P     -173.226     272.548    -472.011
  C     -172.231     271.609    -469.842
  O     -173.048     272.623    -470.413
  O     -173.687     271.222    -472.524
  O     -174.304     273.688    -472.309
  H     -174.916     273.392    -473.015
  H     -172.178     271.748    -468.782
  H     -171.247     271.667    -470.259
  H     -172.653     270.649    -470.055

 6  7  8  9  10  11  12  13  14  15  16  26  31  32  33  34  35 0
 6-311+G(2d,p)
 ****
 36  37 0
 6-311+G(2d,p)
 ****
 1  2  3  4  5  17  18  19  20  21  22  23  24  25 0
 3-21G
 ****
 27  28  29  30  38  39  40  41  42  43  44  45 0
 3-21G
 ****


