%nproc=1
%NoSave
%Mem=1900MB
#P OB98/GEN NMR

erre ene a

0 1
  C       87.420     -54.884    -235.453
  O       87.472     -55.138    -236.862
  P       88.070     -53.979    -237.799
  C       86.356     -53.904    -239.763
  O       87.657     -54.287    -239.314
  C       85.940     -54.761    -240.962
  O       85.566     -56.086    -240.544
  C       84.728     -54.211    -241.697
  O       85.090     -53.123    -242.528
  C       84.238     -55.437    -242.459
  O       84.845     -55.528    -243.758
  C       84.682     -56.614    -241.557
  N       83.563     -57.322    -240.963
  C       82.671     -57.922    -241.863
  O       82.849     -57.811    -243.079
  N       81.590     -58.603    -241.360
  C       81.404     -58.664    -240.080
  N       80.314     -59.352    -239.643
  C       82.304     -58.021    -239.097
  C       83.352     -57.370    -239.603
  O       89.645     -54.266    -237.777
  O       87.754     -52.595    -237.322
  H       85.812     -55.526    -243.600
  H       90.140     -53.429    -237.845
  H       82.102     -58.090    -238.037
  H       84.064     -56.866    -238.953
  H       85.272     -57.337    -242.139
  H       83.154     -55.403    -242.621
  H       83.962     -53.897    -240.972
  H       86.795     -54.837    -241.651
  H       79.717     -59.775    -240.344
  H       86.351     -52.846    -240.039
  H       80.068     -59.453    -238.665
  H       85.651     -54.016    -238.933
  P       84.024     -51.962    -242.754
  C       83.954     -51.851    -245.322
  O       84.449     -51.261    -244.135
  O       84.484     -50.867    -241.670
  O       82.579     -52.314    -242.607
  H       83.841     -50.135    -241.642
  H       84.142     -51.169    -246.156
  H       82.881     -52.025    -245.241
  H       84.477     -52.795    -245.511
  H       87.003     -55.733    -234.953
  H       86.809     -54.025    -235.268
  H       88.409     -54.704    -235.086

 3  4  5  6  7  8  9  10  11  12  13  21  23  27  28  29  30  32 0
 6-311+G(2d,p)
 ****
 34  35 0
 6-311+G(2d,p)
 ****
 1  2  14  15  16  17  18  19  20  22  24  25  26 0
 3-21G
 ****
 31  33  36  37  38  39  40  41  42  43  44  45  46 0
 3-21G
 ****


