%nproc=1
%NoSave
%Mem=1900MB
#P OB98/GEN NMR

erre ene a

0 1
  C     -123.960    -108.405    -161.287
  O     -125.148    -108.260    -162.039
  H     -123.476    -107.430    -161.205
  H     -123.282    -109.094    -161.795
  H     -124.185    -108.775    -160.284
  P     -126.066    -109.566    -162.203
  C     -128.652    -109.717    -162.093
  O     -127.525    -109.043    -162.631
  C     -129.941    -108.972    -162.433
  O     -129.922    -107.672    -161.771
  C     -130.147    -108.719    -163.935
  O     -131.551    -108.804    -164.210
  C     -129.720    -107.269    -164.096
  O     -130.268    -106.664    -165.264
  C     -130.233    -106.689    -162.779
  N     -130.339    -101.796    -163.939
  C     -131.122    -102.841    -164.388
  N     -132.084    -102.539    -165.286
  N     -130.975    -104.077    -163.991
  C     -129.997    -104.230    -163.066
  C     -129.151    -103.281    -162.546
  C     -129.305    -101.920    -163.014
  O     -128.630    -100.956    -162.669
  N     -128.272    -103.841    -161.651
  C     -128.589    -105.122    -161.632
  N     -129.629    -105.407    -162.474
  O     -126.266    -110.045    -160.690
  O     -125.497    -110.645    -163.062
  H     -129.770    -106.997    -166.039
  H     -125.593    -110.711    -160.454
  H     -130.485    -100.865    -164.288
  H     -128.101    -105.880    -161.035
  H     -131.319    -106.535    -162.786
  H     -128.627    -107.201    -164.155
  H     -132.286    -101.603    -165.602
  H     -129.599    -109.405    -164.588
  H     -132.697    -103.285    -165.594
  H     -130.787    -109.528    -162.011
  H     -128.547    -109.773    -161.004
  H     -128.691    -110.734    -162.498
  P     -132.079    -110.064    -165.046
  C     -134.235    -111.478    -164.706
  O     -133.661    -110.185    -164.818
  O     -131.508    -111.308    -164.215
  O     -131.624    -110.093    -166.467
  H     -131.375    -112.070    -164.809
  H     -135.291    -111.388    -164.558
  H     -133.800    -111.990    -163.873
  H     -134.047    -112.031    -165.603

 6  7  8  9  10  11  12  13  14  15  26  29  33  34 0
 6-311+G(2d,p)
 ****
 36  38  39  40  41 0
 6-311+G(2d,p)
 ****
 1  2  3  4  5  16  17  18  19  20  21  22  23  24  25 0
 3-21G
 ****
 27  28  30  31  32  35  37  42  43  44  45  46  47 0
 3-21G
 ****
 48  49 0
 3-21G
 ****


