%nproc=1
%NoSave
%Mem=1900MB
#P OB98/GEN NMR

erre ene a

0 1
  C       28.308     -72.685    -287.228
  O       29.574     -72.298    -287.766
  P       30.609     -73.477    -288.093
  C       30.755     -72.672    -290.559
  O       30.560     -73.764    -289.671
  C       31.141     -73.186    -291.946
  O       32.405     -73.884    -291.924
  C       30.143     -74.181    -292.521
  O       28.972     -73.525    -292.976
  C       30.981     -74.822    -293.624
  O       31.022     -73.970    -294.781
  C       32.372     -74.881    -292.974
  N       34.944     -79.241    -293.715
  C       34.825     -78.124    -294.466
  N       34.118     -77.006    -294.199
  C       33.499     -77.107    -293.012
  C       33.532     -78.179    -292.136
  C       34.294     -79.292    -292.529
  N       34.404     -80.435    -291.772
  N       32.768     -77.916    -291.017
  C       32.266     -76.716    -291.225
  N       32.689     -76.181    -292.412
  O       29.917     -74.767    -287.449
  O       31.975     -73.247    -287.535
  H       30.100     -73.853    -295.089
  H       30.404     -75.045    -286.653
  H       35.367     -78.129    -295.407
  H       31.597     -76.197    -290.551
  H       33.172     -74.634    -293.683
  H       30.596     -75.793    -293.945
  H       29.879     -74.933    -291.767
  H       31.233     -72.321    -292.617
  H       31.538     -72.010    -290.179
  H       34.906     -81.216    -292.162
  H       33.855     -80.516    -290.927
  H       29.834     -72.081    -290.598
  P       27.645     -73.662    -292.086
  C       27.251     -71.138    -291.816
  O       27.660     -72.334    -291.179
  O       28.069     -74.799    -291.048
  O       26.393     -73.911    -292.854
  H       28.962     -74.645    -290.685
  H       27.273     -70.327    -291.083
  H       26.232     -71.242    -292.200
  H       27.937     -70.897    -292.632
  H       27.713     -71.813    -287.055
  H       28.457     -73.205    -286.305
  H       27.807     -73.327    -287.922

 3  4  5  6  7  8  9  10  11  12  22  25  29  30  31  32 0
 6-311+G(2d,p)
 ****
 33  36  37 0
 6-311+G(2d,p)
 ****
 1  2  13  14  15  16  17  18  19  20  21  23  24  26 0
 3-21G
 ****
 27  28  34  35  38  39  40  41  42  43  44  45  46  47  48 0
 3-21G
 ****


