%nproc=1
%NoSave
%Mem=1900MB
#P OB98/GEN NMR

erre ene a

0 1
  C     -160.377    -198.002     -81.886
  O     -161.212    -199.165     -81.940
  P     -162.781    -198.954     -82.106
  C     -162.859    -199.992     -84.469
  O     -163.135    -198.844     -83.672
  C     -162.885    -199.634     -85.963
  O     -161.857    -198.623     -86.223
  C     -162.576    -200.792     -86.923
  O     -163.659    -201.595     -87.371
  C     -162.049    -200.039     -88.146
  O     -163.164    -199.580     -88.952
  C     -161.322    -198.843     -87.546
  N     -156.775    -196.577     -88.235
  C     -158.034    -196.128     -88.375
  N     -159.195    -196.792     -88.180
  C     -158.962    -198.049     -87.774
  C     -157.717    -198.650     -87.576
  C     -156.589    -197.850     -87.831
  N     -155.289    -198.318     -87.687
  N     -157.871    -199.955     -87.163
  C     -159.182    -200.157     -87.131
  N     -159.879    -199.027     -87.470
  O     -163.408    -197.910     -81.238
  O     -163.368    -200.412     -81.731
  H     -162.777    -199.290     -89.800
  H     -164.208    -200.291     -81.240
  H     -158.144    -195.083     -88.716
  H     -159.655    -201.081     -86.858
  H     -161.485    -197.928     -88.119
  H     -161.436    -200.680     -88.792
  H     -161.778    -201.433     -86.511
  H     -163.855    -199.185     -86.217
  H     -163.595    -200.771     -84.271
  H     -154.542    -197.702     -87.937
  H     -155.145    -199.284     -87.437
  H     -161.881    -200.382     -84.150
  P     -164.330    -202.710     -86.420
  C     -166.710    -201.624     -86.457
  O     -165.564    -201.987     -85.709
  O     -163.381    -203.383     -85.487
  O     -165.040    -203.675     -87.479
  H     -165.792    -203.288     -87.942
  H     -167.512    -201.347     -85.758
  H     -167.050    -202.467     -87.071
  H     -166.486    -200.764     -87.102
  H     -159.356    -198.301     -81.774
  H     -160.665    -197.395     -81.053
  H     -160.487    -197.442     -82.791

 3  4  5  6  7  8  9  10  11  12  22  25  29  30  31  32 0
 6-311+G(2d,p)
 ****
 33  36  37 0
 6-311+G(2d,p)
 ****
 1  2  13  14  15  16  17  18  19  20  21  23  24  26 0
 3-21G
 ****
 27  28  34  35  38  39  40  41  42  43  44  45  46  47  48 0
 3-21G
 ****


