%nproc=1
%NoSave
%Mem=1900MB
#P OB98/GEN NMR

erre ene a

0 1
  C      350.393     -27.474      81.722
  O      350.050     -28.838      81.859
  P      348.481     -29.204      81.818
  C      347.094     -31.144      80.753
  O      348.372     -30.634      81.102
  C      347.227     -32.611      80.330
  O      348.015     -32.717      79.124
  C      347.906     -33.502      81.364
  O      346.980     -33.900      82.363
  C      348.405     -34.651      80.496
  O      347.348     -35.589      80.228
  C      348.829     -33.916      79.213
  N      353.433     -35.457      77.789
  C      352.240     -36.155      77.832
  N      352.263     -37.429      77.389
  N      351.113     -35.642      78.268
  C      351.239     -34.361      78.689
  C      352.370     -33.575      78.714
  C      353.589     -34.135      78.181
  O      354.652     -33.536      78.032
  N      352.111     -32.335      79.238
  C      350.819     -32.364      79.504
  N      350.238     -33.560      79.169
  O      347.900     -28.179      80.740
  O      347.778     -29.119      83.135
  H      347.534     -36.051      79.388
  H      347.490     -27.410      81.176
  H      354.262     -35.900      77.427
  H      350.256     -31.537      79.912
  H      348.628     -34.511      78.313
  H      349.206     -35.213      80.975
  H      353.098     -37.896      77.060
  H      348.760     -32.979      81.811
  H      351.400     -37.954      77.414
  H      346.224     -32.985      80.104
  H      346.693     -30.565      79.918
  H      346.419     -31.048      81.612
  P      347.559     -34.700      83.627
  C      346.619     -35.408      85.945
  O      346.462     -34.600      84.795
  O      348.754     -33.771      84.141
  O      348.034     -36.080      83.323
  H      349.484     -34.326      84.475
  H      346.176     -34.885      86.798
  H      347.671     -35.611      86.160
  H      346.092     -36.353      85.792
  H      351.457     -27.368      81.766
  H      349.945     -26.912      82.515
  H      350.037     -27.109      80.781

 3  4  5  6  7  8  9  10  11  12  23  26  30  31 0
 6-311+G(2d,p)
 ****
 33  35  36  37  38 0
 6-311+G(2d,p)
 ****
 1  2  13  14  15  16  17  18  19  20  21  22  24  25 0
 3-21G
 ****
 27  28  29  32  34  39  40  41  42  43  44  45  46  47  48  49 0
 3-21G
 ****


