%nproc=1
%NoSave
%Mem=1900MB
#P OB98/GEN NMR

erre ene a

0 1
  C     -172.588     191.815     166.796
  O     -171.716     190.965     167.556
  P     -172.100     190.361     168.992
  C     -173.660     188.433     168.254
  O     -172.401     188.795     168.810
  C     -174.423     187.497     169.198
  O     -175.804     187.381     168.781
  C     -173.922     186.061     169.234
  O     -172.698     185.932     169.933
  C     -175.102     185.351     169.893
  O     -175.034     185.444     171.322
  C     -176.306     186.158     169.370
  N     -177.116     185.414     168.419
  C     -177.916     184.395     168.941
  O     -177.856     184.103     170.135
  N     -178.754     183.716     168.089
  C     -178.716     183.963     166.816
  N     -179.582     183.273     166.022
  C     -177.788     184.934     166.210
  C     -177.027     185.620     167.061
  O     -173.190     191.105     169.689
  O     -170.744     190.396     169.841
  H     -170.956     190.450     170.791
  H     -175.793     184.944     171.676
  H     -177.759     185.079     165.139
  H     -176.326     186.365     166.700
  H     -176.937     186.480     170.206
  H     -175.135     184.286     169.641
  H     -173.805     185.694     168.205
  H     -174.397     187.935     170.204
  H     -180.210     182.621     166.473
  H     -173.485     187.912     167.306
  H     -179.649     183.407     165.024
  H     -174.239     189.339     168.050
  P     -171.541     185.080     169.220
  C     -170.485     186.862     167.659
  O     -170.358     186.088     168.835
  O     -172.182     184.680     167.808
  O     -171.110     183.867     169.980
  H     -171.922     183.770     167.575
  H     -169.908     187.782     167.784
  H     -171.528     187.120     167.455
  H     -170.077     186.302     166.814
  H     -172.110     192.087     165.878
  H     -172.806     192.698     167.360
  H     -173.498     191.294     166.584

 3  4  5  6  7  8  9  10  11  12  13  24  27  28  29  30  32 0
 6-311+G(2d,p)
 ****
 34  35 0
 6-311+G(2d,p)
 ****
 1  2  14  15  16  17  18  19  20  21  22  23  25  26 0
 3-21G
 ****
 31  33  36  37  38  39  40  41  42  43  44  45  46 0
 3-21G
 ****


