%nproc=1
%NoSave
%Mem=1900MB
#P OB98/GEN NMR

erre ene a

0 1
  C     -307.261     359.001     120.546
  O     -306.620     360.209     120.892
  H     -307.604     359.077     119.508
  H     -308.132     358.828     121.187
  H     -306.567     358.162     120.622
  P     -306.181     360.449     122.421
  C     -306.888     362.914     122.521
  O     -305.788     362.014     122.495
  C     -306.473     364.319     122.075
  O     -305.460     364.841     122.976
  C     -305.900     364.375     120.652
  O     -306.495     365.460     119.937
  C     -304.414     364.638     120.873
  O     -303.806     365.256     119.741
  C     -304.450     365.469     122.160
  N     -303.159     365.523     122.840
  C     -302.211     366.399     122.308
  O     -302.466     367.054     121.291
  N     -300.977     366.489     122.909
  C     -300.698     365.734     123.923
  N     -299.462     365.860     124.468
  C     -301.658     364.755     124.489
  C     -302.858     364.709     123.907
  O     -305.132     359.514     122.924
  O     -307.551     360.385     123.245
  H     -304.175     366.158     119.645
  H     -307.354     360.205     124.201
  H     -301.378     364.135     125.323
  H     -303.628     364.024     124.264
  H     -304.776     366.500     121.949
  H     -303.898     363.683     121.060
  H     -306.061     363.461     120.081
  H     -307.340     364.988     122.179
  H     -298.837     366.541     124.053
  H     -307.293     362.944     123.543
  H     -299.135     365.313     125.258
  H     -307.659     362.539     121.836
  P     -307.033     365.127     118.458
  C     -305.972     367.054     117.081
  O     -307.160     366.509     117.650
  O     -308.549     364.690     118.712
  O     -306.252     364.058     117.771
  H     -308.628     363.717     118.696
  H     -306.205     367.968     116.577
  H     -305.559     366.357     116.383
  H     -305.261     367.246     117.857

 6  7  8  9  10  11  12  13  14  15  16  26  30  31  32  33  35 0
 6-311+G(2d,p)
 ****
 37  38 0
 6-311+G(2d,p)
 ****
 1  2  3  4  5  17  18  19  20  21  22  23  24  25 0
 3-21G
 ****
 27  28  29  34  36  39  40  41  42  43  44  45  46 0
 3-21G
 ****


