%nproc=1
%NoSave
%Mem=1900MB
#P OB98/GEN NMR

erre ene a

0 1
  C       -5.366    -473.287     556.247
  O       -6.519    -474.003     556.642
  H       -4.887    -473.819     555.420
  H       -4.664    -473.217     557.082
  H       -5.640    -472.282     555.912
  P       -7.469    -473.312     557.728
  C       -6.547    -474.903     559.604
  O       -6.818    -473.571     559.175
  C       -6.105    -474.902     561.064
  O       -4.921    -474.102     561.257
  C       -7.121    -474.277     562.012
  O       -8.261    -475.084     562.194
  C       -6.265    -474.118     563.262
  O       -6.143    -475.364     563.967
  C       -4.903    -473.694     562.646
  N       -4.648    -472.270     562.792
  C       -3.889    -471.899     563.919
  O       -3.484    -472.755     564.702
  N       -3.644    -470.564     564.129
  C       -4.090    -469.677     563.292
  N       -3.821    -468.380     563.565
  C       -4.862    -470.031     562.091
  C       -5.110    -471.333     561.902
  O       -8.751    -474.269     557.740
  O       -7.776    -471.868     557.479
  H       -5.375    -475.261     564.571
  H       -8.536    -475.205     557.891
  H       -5.211    -469.262     561.404
  H       -5.675    -471.671     561.038
  H       -4.082    -474.243     563.131
  H       -6.696    -473.400     563.960
  H       -7.393    -473.271     561.656
  H       -5.875    -475.937     561.353
  H       -3.305    -468.175     564.416
  H       -5.783    -475.368     558.971
  H       -4.145    -467.600     563.001
  H       -7.471    -475.484     559.484
  P       -9.637    -474.442     562.720
  C       -9.880    -475.975     564.769
  O       -9.655    -474.645     564.311
  O      -10.867    -474.916     562.018
  O       -9.380    -472.863     562.583
  H       -8.625    -472.528     563.105
  H       -9.871    -475.990     565.839
  H       -9.108    -476.616     564.397
  H      -10.830    -476.318     564.415

 6  7  8  9  10  11  12  13  14  15  16  26  30  31  32  33  35 0
 6-311+G(2d,p)
 ****
 37  38 0
 6-311+G(2d,p)
 ****
 1  2  3  4  5  17  18  19  20  21  22  23  24  25 0
 3-21G
 ****
 27  28  29  34  36  39  40  41  42  43  44  45  46 0
 3-21G
 ****


