%nproc=1
%NoSave
%Mem=1900MB
#P OB98/GEN NMR

erre ene a

0 1
  C      -80.332    -150.327      32.205
  O      -81.179    -149.905      31.157
  H      -79.980    -151.337      31.984
  H      -80.873    -150.347      33.155
  H      -79.465    -149.665      32.282
  P      -81.924    -148.490      31.301
  C      -79.797    -147.629      30.096
  O      -80.748    -147.406      31.126
  C      -79.601    -146.357      29.274
  O      -79.416    -145.210      30.129
  C      -78.375    -146.365      28.366
  O      -78.529    -147.180      27.216
  C      -78.292    -144.886      28.023
  O      -79.300    -144.560      27.051
  C      -78.617    -144.241      29.393
  N      -77.421    -143.885      30.154
  C      -77.170    -142.516      30.321
  O      -77.932    -141.677      29.843
  N      -76.038    -142.128      30.997
  C      -75.218    -143.026      31.448
  N      -74.087    -142.587      32.068
  C      -75.452    -144.476      31.309
  C      -76.556    -144.831      30.655
  O      -82.780    -148.315      32.514
  O      -82.725    -148.320      29.926
  H      -79.280    -143.594      26.930
  H      -83.214    -147.462      29.970
  H      -74.732    -145.181      31.697
  H      -76.788    -145.880      30.497
  H      -79.235    -143.345      29.266
  H      -77.326    -144.594      27.602
  H      -77.476    -146.645      28.926
  H      -80.523    -146.187      28.703
  H      -73.939    -141.588      32.106
  H      -80.160    -148.450      29.469
  H      -73.284    -143.195      32.192
  H      -78.833    -147.912      30.529
  P      -77.199    -147.675      26.464
  C      -77.302    -149.971      27.690
  O      -76.542    -148.812      27.387
  O      -76.210    -146.432      26.633
  O      -77.376    -148.078      25.033
  H      -76.253    -145.838      25.859
  H      -76.724    -150.624      28.310
  H      -77.560    -150.476      26.782
  H      -78.195    -149.687      28.206

 6  7  8  9  10  11  12  13  14  15  16  26  30  31  32  33  35 0
 6-311+G(2d,p)
 ****
 37  38 0
 6-311+G(2d,p)
 ****
 1  2  3  4  5  17  18  19  20  21  22  23  24  25 0
 3-21G
 ****
 27  28  29  34  36  39  40  41  42  43  44  45  46 0
 3-21G
 ****


