%nproc=1
%NoSave
%Mem=1900MB
#P OB98/GEN NMR

erre ene a

0 1
  C     -268.046    -107.664     137.516
  O     -268.138    -108.401     136.311
  H     -268.978    -107.786     138.076
  H     -267.906    -106.598     137.312
  H     -267.216    -108.034     138.121
  P     -266.959    -108.254     135.237
  C     -268.778    -106.894     133.993
  O     -267.393    -107.037     134.286
  C     -269.184    -105.425     134.078
  O     -268.682    -104.834     135.297
  C     -268.619    -104.574     132.944
  O     -269.329    -104.800     131.747
  C     -268.741    -103.185     133.537
  O     -270.078    -102.687     133.415
  C     -268.383    -103.451     135.020
  N     -266.989    -103.145     135.326
  C     -266.608    -101.803     135.189
  O     -267.432    -100.957     134.834
  N     -265.298    -101.471     135.435
  C     -264.450    -102.378     135.798
  N     -263.174    -101.980     136.027
  C     -264.814    -103.798     135.974
  C     -266.083    -104.108     135.716
  O     -266.554    -109.493     134.506
  O     -265.750    -107.635     136.087
  H     -270.081    -101.818     133.861
  H     -265.207    -108.345     136.476
  H     -264.076    -104.522     136.282
  H     -266.435    -105.131     135.816
  H     -269.021    -102.850     135.680
  H     -268.078    -102.483     133.039
  H     -267.551    -104.798     132.811
  H     -270.281    -105.367     134.099
  H     -262.965    -100.994     135.892
  H     -269.333    -107.483     134.738
  H     -262.450    -102.578     136.401
  H     -269.010    -107.290     132.999
  P     -268.568    -105.309     130.426
  C     -269.560    -103.231     129.265
  O     -268.385    -104.004     129.508
  O     -269.188    -106.491     129.754
  O     -267.078    -105.589     130.951
  H     -267.034    -106.414     131.491
  H     -269.314    -102.394     128.646
  H     -269.956    -102.882     130.196
  H     -270.290    -103.838     128.771

 6  7  8  9  10  11  12  13  14  15  16  26  30  31  32  33  35 0
 6-311+G(2d,p)
 ****
 37  38 0
 6-311+G(2d,p)
 ****
 1  2  3  4  5  17  18  19  20  21  22  23  24  25 0
 3-21G
 ****
 27  28  29  34  36  39  40  41  42  43  44  45  46 0
 3-21G
 ****


