%nproc=1
%NoSave
%Mem=1900MB
#P OB98/GEN NMR

erre ene a

0 1
  C      132.417     389.329     -56.497
  O      131.323     388.669     -55.883
  P      130.253     389.571     -55.095
  C      128.541     389.327     -57.018
  O      129.295     390.222     -56.212
  C      127.071     389.331     -56.599
  O      126.579     390.700     -56.602
  C      126.151     388.506     -57.517
  O      125.239     387.745     -56.710
  C      125.346     389.567     -58.248
  O      124.090     389.065     -58.693
  C      125.256     390.647     -57.172
  N      121.286     393.637     -58.096
  C      121.362     392.460     -57.369
  N      120.198     391.992     -56.868
  N      122.470     391.802     -57.156
  C      123.559     392.405     -57.688
  C      123.618     393.572     -58.418
  C      122.369     394.256     -58.700
  O      122.234     395.249     -59.413
  N      124.912     393.876     -58.775
  C      125.633     392.892     -58.267
  N      124.852     391.951     -57.639
  O      131.139     390.807     -54.583
  O      129.561     388.893     -53.961
  H      124.266     388.246     -59.191
  H      131.058     390.886     -53.614
  H      120.404     394.090     -58.244
  H      126.703     392.807     -58.353
  H      124.557     390.339     -56.383
  H      125.912     389.911     -59.120
  H      119.308     392.465     -56.962
  H      126.682     387.841     -58.200
  H      120.227     391.148     -56.319
  H      127.007     388.971     -55.559
  H      128.943     388.315     -56.915
  H      128.626     389.635     -58.066
  P      124.850     386.292     -57.274
  C      126.731     385.312     -55.749
  O      126.142     385.376     -57.040
  O      124.814     386.504     -58.858
  O      123.566     385.758     -56.730
  H      124.234     385.842     -59.277
  H      126.101     385.793     -54.992
  H      127.702     385.806     -55.776
  H      126.867     384.259     -55.475
  H      133.042     388.608     -56.981
  H      132.983     389.850     -55.753
  H      132.052     390.027     -57.221

 3  4  5  6  7  8  9  10  11  12  23  26  30  31  33  0
 6-311+G(2d,p)
 ****
 35  36  37  38 0
 6-311+G(2d,p)
 ****
 1  2  13  14  15  16  17  18  19  20  21  22  24  25  27  28  29 0
 3-21G
 ****
 32  34  39  40  41  42  43  44  45  46  47  48  49 0
 3-21G
 ****


