%nproc=1
%NoSave
%Mem=1900MB
#P OB98/GEN NMR

erre ene a

0 1
  C      -65.461      49.694     377.809
  O      -66.609      50.378     377.351
  H      -64.617      49.958     377.166
  H      -65.613      48.613     377.761
  H      -65.223      49.992     378.835
  P      -68.008      50.112     378.085
  C      -69.811      50.359     376.253
  O      -69.108      50.994     377.319
  C      -69.869      51.287     375.035
  O      -68.555      51.295     374.424
  C      -70.886      50.815     373.985
  O      -71.816      51.830     373.610
  C      -70.009      50.221     372.890
  O      -70.584      50.236     371.600
  C      -68.706      51.018     373.020
  N      -67.531      50.320     372.502
  C      -67.441      50.156     371.122
  O      -68.260      50.572     370.306
  N      -66.333      49.480     370.679
  C      -65.341      48.962     371.457
  O      -64.370      48.372     371.000
  C      -65.503      49.149     372.906
  C      -66.574      49.807     373.356
  O      -68.000      50.275     379.568
  O      -68.389      48.615     377.662
  H      -71.414      49.719     371.638
  H      -68.198      48.008     378.401
  H      -66.251      49.366     369.682
  H      -64.739      48.742     373.555
  H      -66.724      49.963     374.420
  H      -68.786      51.970     372.491
  H      -69.811      49.171     373.141
  H      -71.528      50.025     374.391
  H      -70.082      52.307     375.376
  H      -70.819      50.131     376.606
  H      -69.306      49.426     375.986
  P      -73.400      51.643     373.574
  C      -74.108      52.279     371.128
  O      -73.997      52.660     372.494
  O      -74.075      51.594     374.903
  O      -73.586      50.199     372.879
  H      -74.389      49.800     373.274
  H      -74.527      53.087     370.565
  H      -74.743      51.422     371.047
  H      -73.138      52.042     370.744

 6  7  8  9  10  11  12  13  14  15  16  26  31  32  33  34  35 0
 6-311+G(2d,p)
 ****
 36  37 0
 6-311+G(2d,p)
 ****
 1  2  3  4  5  17  18  19  20  21  22  23  24  25 0
 3-21G
 ****
 27  28  29  30  38  39  40  41  42  43  44  45 0
 3-21G
 ****


