%nproc=1
%NoSave
%Mem=1900MB
#P OB98/GEN NMR

erre ene a

0 1
  C      650.422    -257.464    -225.038
  O      649.195    -258.036    -225.442
  P      649.149    -259.447    -226.224
  C      647.897    -258.284    -228.182
  O      649.035    -259.045    -227.775
  C      647.946    -258.039    -229.677
  O      648.972    -257.067    -229.977
  C      648.266    -259.266    -230.526
  O      647.154    -260.125    -230.627
  C      648.733    -258.610    -231.820
  O      647.600    -258.203    -232.597
  C      649.483    -257.370    -231.305
  N      650.929    -257.556    -231.278
  C      651.614    -257.315    -232.480
  O      651.014    -256.971    -233.494
  N      652.986    -257.448    -232.498
  C      653.611    -257.812    -231.418
  N      654.974    -257.870    -231.486
  C      652.931    -258.134    -230.148
  C      651.609    -257.978    -230.149
  O      648.106    -260.392    -225.755
  O      650.641    -260.006    -226.123
  H      647.941    -257.637    -233.327
  H      650.802    -260.554    -225.315
  H      653.495    -258.436    -229.289
  H      651.038    -258.167    -229.258
  H      649.248    -256.499    -231.930
  H      649.355    -259.275    -232.437
  H      649.100    -259.821    -230.074
  H      646.980    -257.614    -229.998
  H      655.403    -257.482    -232.314
  H      647.915    -257.328    -227.653
  H      655.544    -257.854    -230.643
  H      646.987    -258.833    -227.892
  P      647.408    -261.631    -231.101
  C      645.924    -261.386    -233.218
  O      647.214    -261.635    -232.698
  O      646.134    -262.420    -230.550
  O      648.690    -262.221    -230.613
  H      646.359    -262.901    -229.734
  H      646.006    -261.191    -234.292
  H      645.474    -260.514    -232.735
  H      645.293    -262.275    -233.079
  H      650.236    -256.536    -224.539
  H      651.035    -257.290    -225.898
  H      650.925    -258.133    -224.371

 3  4  5  6  7  8  9  10  11  12  13  23  27  28  29  30  32 0
 6-311+G(2d,p)
 ****
 34  35 0
 6-311+G(2d,p)
 ****
 1  2  14  15  16  17  18  19  20  21  22  24  25  26 0
 3-21G
 ****
 31  33  36  37  38  39  40  41  42  43  44  45  46 0
 3-21G
 ****


