%nproc=1
%NoSave
%Mem=1900MB
#P OB98/GEN NMR

erre ene a

0 1
  C     -218.757     114.164      41.262
  O     -218.581     112.976      40.522
  H     -219.087     113.906      42.271
  H     -219.523     114.787      40.794
  H     -217.816     114.719      41.331
  P     -217.945     113.106      39.054
  C     -215.725     114.247      39.774
  O     -216.962     114.378      39.091
  C     -214.576     114.750      38.896
  O     -214.887     116.094      38.448
  C     -213.228     114.795      39.618
  O     -212.205     114.400      38.701
  C     -213.052     116.261      39.969
  O     -211.684     116.634      40.122
  C     -213.779     116.945      38.802
  N     -214.223     118.288      39.166
  C     -213.228     119.253      39.341
  O     -212.040     118.953      39.202
  N     -213.589     120.518      39.731
  C     -214.831     120.775      40.003
  N     -215.122     122.039      40.414
  C     -215.906     119.771      39.897
  C     -215.537     118.564      39.470
  O     -219.171     113.616      38.164
  O     -217.326     111.861      38.514
  H     -211.330     116.177      40.914
  H     -219.106     113.282      37.249
  H     -216.923     120.025      40.163
  H     -216.256     117.758      39.368
  H     -213.122     117.016      37.926
  H     -213.569     116.476      40.914
  H     -213.189     114.150      40.502
  H     -214.521     114.118      38.001
  H     -214.352     122.698      40.491
  H     -215.557     113.190      40.006
  H     -216.046     122.339      40.696
  H     -215.765     114.811      40.711
  P     -211.177     113.274      39.199
  C     -212.266     111.230      38.022
  O     -211.957     111.875      39.253
  O     -210.951     113.640      40.741
  O     -209.891     113.255      38.441
  H     -210.055     114.004      40.869
  H     -212.783     110.314      38.219
  H     -211.360     111.021      37.492
  H     -212.887     111.870      37.430

 6  7  8  9  10  11  12  13  14  15  16  26  30  31  32  33  35 0
 6-311+G(2d,p)
 ****
 37  38 0
 6-311+G(2d,p)
 ****
 1  2  3  4  5  17  18  19  20  21  22  23  24  25 0
 3-21G
 ****
 27  28  29  34  36  39  40  41  42  43  44  45  46 0
 3-21G
 ****


