%nproc=1
%NoSave
%Mem=1900MB
#P OB98/GEN NMR

erre ene a

0 1
  C     -793.670    -638.295    -240.388
  O     -793.067    -637.157    -239.813
  P     -793.919    -636.145    -238.917
  C     -792.856    -636.581    -236.601
  O     -793.969    -636.819    -237.449
  C     -793.177    -635.452    -235.597
  O     -794.153    -635.903    -234.639
  C     -791.976    -635.010    -234.788
  O     -791.124    -634.162    -235.556
  C     -792.662    -634.296    -233.613
  O     -793.034    -632.966    -233.965
  C     -793.913    -635.183    -233.406
  N     -793.778    -636.095    -232.275
  C     -794.819    -636.059    -231.339
  O     -795.745    -635.273    -231.480
  N     -794.744    -636.878    -230.232
  C     -793.707    -637.659    -230.090
  N     -793.693    -638.436    -228.970
  C     -792.573    -637.698    -231.036
  C     -792.683    -636.900    -232.097
  O     -795.240    -635.759    -239.484
  O     -792.924    -634.915    -238.695
  H     -792.200    -632.506    -234.196
  H     -792.849    -634.363    -239.523
  H     -791.726    -638.360    -230.861
  H     -791.893    -636.874    -232.840
  H     -794.798    -634.565    -233.253
  H     -792.024    -634.241    -232.735
  H     -791.418    -635.875    -234.428
  H     -793.587    -634.614    -236.163
  H     -794.472    -638.350    -228.327
  H     -791.998    -636.281    -237.231
  H     -792.911    -639.052    -228.745
  H     -792.577    -637.499    -236.079
  P     -789.605    -634.586    -235.814
  C     -789.929    -635.069    -238.329
  O     -789.586    -635.593    -237.049
  O     -788.848    -635.030    -234.621
  O     -788.942    -633.265    -236.443
  H     -788.078    -633.101    -236.026
  H     -789.585    -635.746    -239.096
  H     -789.481    -634.079    -238.472
  H     -791.029    -634.989    -238.405
  H     -792.940    -638.842    -240.947
  H     -794.462    -637.988    -241.040
  H     -794.066    -638.918    -239.614

 3  4  5  6  7  8  9  10  11  12  13  23  27  28  29  30  32 0
 6-311+G(2d,p)
 ****
 34  35 0
 6-311+G(2d,p)
 ****
 1  2  14  15  16  17  18  19  20  21  22  24  25  26 0
 3-21G
 ****
 31  33  36  37  38  39  40  41  42  43  44  45  46 0
 3-21G
 ****


