%nproc=1
%NoSave
%Mem=1900MB
#P OB98/GEN NMR

erre ene a

0 1
  C     -223.998    -714.735     934.003
  O     -224.487    -713.638     933.261
  H     -224.630    -715.606     933.802
  H     -224.047    -714.502     935.072
  H     -222.962    -714.969     933.725
  P     -223.515    -712.377     933.076
  C     -222.984    -712.994     930.608
  O     -222.473    -712.768     931.914
  C     -222.712    -711.787     929.700
  O     -221.264    -711.654     929.555
  C     -223.303    -711.918     928.289
  O     -223.756    -710.621     927.863
  C     -222.117    -712.312     927.445
  O     -222.290    -711.981     926.072
  C     -220.995    -711.537     928.135
  N     -217.956    -712.357     924.237
  C     -219.140    -711.635     924.310
  N     -219.627    -711.127     923.177
  N     -219.799    -711.472     925.435
  C     -219.198    -712.028     926.509
  C     -218.025    -712.745     926.561
  C     -217.314    -712.959     925.319
  O     -216.272    -713.581     925.175
  N     -217.778    -713.195     927.840
  C     -218.805    -712.763     928.554
  N     -219.691    -712.038     927.785
  O     -222.624    -712.435     934.413
  O     -224.190    -711.060     932.910
  H     -222.549    -711.042     926.010
  H     -223.018    -711.838     935.090
  H     -217.490    -712.470     923.350
  H     -218.960    -712.956     929.594
  H     -221.007    -710.468     927.885
  H     -221.949    -713.394     927.523
  H     -219.165    -711.191     922.274
  H     -224.149    -712.630     928.219
  H     -220.471    -710.571     923.220
  H     -223.061    -710.879     930.204
  H     -224.073    -713.139     930.672
  H     -222.531    -713.902     930.200
  P     -225.276    -710.452     927.366
  C     -226.021    -710.210     929.863
  O     -226.254    -710.827     928.599
  O     -225.457    -711.677     926.367
  O     -225.548    -709.146     926.703
  H     -226.056    -711.431     925.646
  H     -226.746    -710.558     930.569
  H     -226.103    -709.148     929.762
  H     -225.039    -710.461     930.207

 6  7  8  9  10  11  12  13  14  15  26  29  33  34 0
 6-311+G(2d,p)
 ****
 36  38  39  40  41 0
 6-311+G(2d,p)
 ****
 1  2  3  4  5  16  17  18  19  20  21  22  23  24  25 0
 3-21G
 ****
 27  28  30  31  32  35  37  42  43  44  45  46  47 0
 3-21G
 ****
 48  49 0
 3-21G
 ****


