%nproc=1
%NoSave
%Mem=1900MB
#P OB98/GEN NMR

erre ene a

0 1
  C       81.492     -58.995    -100.772
  O       81.859     -58.897     -99.411
  H       80.666     -58.305    -100.964
  H       81.161     -60.011    -100.999
  H       82.334     -58.725    -101.414
  P       83.082     -59.815     -98.913
  C       85.016     -58.103     -99.252
  O       84.167     -58.779     -98.329
  C       85.702     -56.914     -98.573
  O       84.733     -55.855     -98.373
  C       86.308     -57.260     -97.209
  O       87.597     -56.654     -97.095
  C       85.337     -56.655     -96.208
  O       85.968     -56.339     -94.967
  C       84.780     -55.459     -96.988
  N       83.456     -55.061     -96.507
  C       83.396     -54.483     -95.235
  O       84.426     -54.339     -94.570
  N       82.174     -54.134     -94.724
  C       81.094     -54.394     -95.397
  N       79.911     -54.041     -94.825
  C       81.106     -55.045     -96.723
  C       82.308     -55.345     -97.214
  O       83.735     -60.315    -100.283
  O       82.711     -60.918     -97.978
  H       86.312     -57.175     -94.582
  H       84.368     -61.058    -100.131
  H       80.181     -55.256     -97.237
  H       82.414     -55.827     -98.180
  H       85.457     -54.594     -96.909
  H       84.533     -57.375     -96.004
  H       86.409     -58.334     -97.048
  H       86.464     -56.519     -99.257
  H       79.939     -53.606     -93.913
  H       84.414     -57.750    -100.093
  H       79.007     -54.220     -95.246
  H       85.773     -58.804     -99.620
  P       88.855     -57.626     -97.325
  C       89.476     -58.016     -99.815
  O       89.582     -57.164     -98.681
  O       88.180     -59.026     -97.709
  O       89.753     -57.735     -96.137
  H       88.155     -59.615     -96.933
  H       90.005     -57.582    -100.638
  H       88.445     -58.135    -100.077
  H       89.898     -58.972     -99.584

 6  7  8  9  10  11  12  13  14  15  16  26  30  31  32  33  35 0
 6-311+G(2d,p)
 ****
 37  38 0
 6-311+G(2d,p)
 ****
 1  2  3  4  5  17  18  19  20  21  22  23  24  25 0
 3-21G
 ****
 27  28  29  34  36  39  40  41  42  43  44  45  46 0
 3-21G
 ****


