%nproc=1
%NoSave
%Mem=1900MB
#P OB98/GEN NMR

erre ene a

0 1
  C       46.070     -97.800    -615.574
  O       46.278     -98.003    -614.191
  H       45.184     -97.179    -615.729
  H       46.942     -97.287    -615.994
  H       45.947     -98.762    -616.084
  P       45.091     -98.730    -613.392
  C       43.120     -97.093    -613.012
  O       43.723     -98.044    -613.879
  C       41.689     -96.804    -613.461
  O       41.731     -96.426    -614.870
  C       40.723     -97.992    -613.307
  O       39.532     -97.587    -612.629
  C       40.371     -98.367    -614.740
  O       39.030     -98.832    -614.870
  C       40.605     -97.065    -615.500
  N       38.399     -98.025    -619.999
  C       37.906     -97.480    -618.861
  N       38.578     -97.158    -617.728
  C       39.887     -97.431    -617.852
  C       40.531     -97.963    -618.960
  C       39.727     -98.289    -620.064
  N       40.211     -98.891    -621.200
  N       41.885     -98.105    -618.710
  C       42.046     -97.703    -617.465
  N       40.863     -97.299    -616.902
  O       45.274     -98.188    -611.892
  O       45.130    -100.222    -613.443
  H       38.456     -98.181    -614.428
  H       45.451     -98.946    -611.299
  H       36.841     -97.277    -618.856
  H       42.984     -97.725    -616.914
  H       39.745     -96.383    -615.413
  H       41.051     -99.159    -615.082
  H       41.175     -98.833    -612.776
  H       41.315     -95.933    -612.906
  H       43.702     -96.161    -613.026
  H       39.551     -99.199    -621.891
  H       41.186     -99.193    -621.215
  H       43.122     -97.494    -611.984
  P       39.451     -97.932    -611.056
  C       38.028    -100.104    -611.212
  O       39.293     -99.520    -610.904
  O       38.029     -97.347    -610.628
  O       40.560     -97.317    -610.260
  H       38.128     -96.707    -609.896
  H       38.078    -101.162    -611.064
  H       37.779     -99.898    -612.232
  H       37.278     -99.689    -610.571

 6  7  8  9  10  11  12  13  14  15  25  28  32  33  34  35 0
 6-311+G(2d,p)
 ****
 36  39  40 0
 6-311+G(2d,p)
 ****
 1  2  3  4  5  16  17  18  19  20  21  22  23  24 0
 3-21G
 ****
 26  27  29  30  31  37  38  41  42  43  44  45  46  47  48 0
 3-21G
 ****


