%nproc=1
%NoSave
%Mem=1900MB
#P OB98/GEN NMR

erre ene a

0 1
  C     -490.846    -370.649     588.427
  O     -489.686    -371.241     587.876
  H     -490.721    -369.564     588.430
  H     -490.994    -370.986     589.458
  H     -491.727    -370.904     587.821
  P     -489.666    -372.844     587.800
  C     -489.022    -372.935     585.295
  O     -488.636    -373.224     586.627
  C     -487.889    -373.289     584.317
  O     -486.846    -372.293     584.363
  C     -487.225    -374.634     584.606
  O     -487.971    -375.708     584.045
  C     -485.870    -374.456     583.931
  O     -485.960    -374.670     582.510
  C     -485.556    -372.976     584.232
  N     -481.644    -374.706     586.910
  C     -482.139    -375.112     585.697
  N     -481.534    -376.188     585.121
  N     -483.147    -374.544     585.085
  C     -483.675    -373.510     585.785
  C     -483.257    -373.002     586.998
  C     -482.121    -373.633     587.647
  O     -481.595    -373.280     588.701
  N     -484.031    -371.935     587.380
  C     -484.932    -371.820     586.425
  N     -484.766    -372.773     585.442
  O     -491.091    -373.217     587.172
  O     -489.450    -373.539     589.109
  H     -486.187    -375.601     582.333
  H     -491.376    -374.079     587.514
  H     -480.849    -375.180     587.322
  H     -485.722    -371.082     586.392
  H     -485.013    -372.486     583.408
  H     -485.126    -375.149     584.307
  H     -480.996    -376.858     585.673
  H     -487.081    -374.775     585.697
  H     -481.899    -376.506     584.230
  H     -488.314    -373.277     583.307
  H     -489.231    -371.857     585.207
  H     -489.918    -373.501     585.044
  P     -488.396    -376.913     585.025
  C     -490.705    -377.045     583.838
  O     -489.531    -377.744     584.257
  O     -489.198    -376.175     586.198
  O     -487.246    -377.731     585.546
  H     -489.264    -376.775     586.984
  H     -491.367    -377.724     583.343
  H     -490.431    -376.260     583.165
  H     -491.196    -376.628     584.692

 6  7  8  9  10  11  12  13  14  15  26  29  33  34 0
 6-311+G(2d,p)
 ****
 36  38  39  40  41 0
 6-311+G(2d,p)
 ****
 1  2  3  4  5  16  17  18  19  20  21  22  23  24  25 0
 3-21G
 ****
 27  28  30  31  32  35  37  42  43  44  45  46  47 0
 3-21G
 ****
 48  49 0
 3-21G
 ****


