%nproc=1
%NoSave
%Mem=1900MB
#P OB98/GEN NMR

erre ene a

0 1
  C     -124.861    -218.815      32.848
  O     -124.196    -219.895      33.505
  P     -125.108    -220.821      34.446
  C     -123.067    -221.566      35.866
  O     -124.173    -221.966      35.069
  C     -122.208    -222.774      36.245
  O     -122.996    -223.882      36.718
  C     -121.384    -223.315      35.086
  O     -120.229    -222.514      34.894
  C     -121.062    -224.724      35.563
  O     -119.913    -224.733      36.436
  C     -122.329    -225.114      36.342
  N     -123.009    -229.666      34.221
  C     -121.865    -229.095      34.744
  N     -120.750    -229.854      34.720
  N     -121.821    -227.888      35.247
  C     -123.011    -227.245      35.205
  C     -124.216    -227.715      34.739
  C     -124.251    -229.051      34.183
  O     -125.244    -229.608      33.729
  N     -125.219    -226.794      34.921
  C     -124.589    -225.727      35.378
  N     -123.261    -225.969      35.629
  O     -126.038    -221.604      33.405
  O     -125.917    -220.049      35.435
  H     -119.132    -224.436      35.936
  H     -126.958    -221.285      33.479
  H     -122.985    -230.596      33.838
  H     -125.051    -224.771      35.568
  H     -122.082    -225.642      37.271
  H     -120.820    -225.391      34.732
  H     -120.713    -230.791      34.351
  H     -121.993    -223.356      34.174
  H     -119.903    -229.457      35.106
  H     -121.541    -222.460      37.060
  H     -123.421    -221.068      36.770
  H     -122.481    -220.829      35.309
  P     -120.080    -221.736      33.501
  C     -117.484    -221.712      33.544
  O     -118.681    -220.959      33.533
  O     -121.173    -220.572      33.616
  O     -120.317    -222.580      32.292
  H     -121.663    -220.502      32.776
  H     -116.699    -221.131      33.056
  H     -117.601    -222.665      33.022
  H     -117.191    -221.903      34.580
  H     -124.157    -218.272      32.253
  H     -125.289    -218.162      33.579
  H     -125.635    -219.202      32.219

 3  4  5  6  7  8  9  10  11  12  23  26  30  31 0
 6-311+G(2d,p)
 ****
 33  35  36  37  38 0
 6-311+G(2d,p)
 ****
 1  2  13  14  15  16  17  18  19  20  21  22  24  25 0
 3-21G
 ****
 27  28  29  32  34  39  40  41  42  43  44  45  46  47  48  49 0
 3-21G
 ****


