%nproc=1
%NoSave
%Mem=1900MB
#P OB98/GEN NMR

erre ene a

0 1
  C     -210.164    -217.298     180.578
  O     -209.571    -218.491     180.044
  P     -210.354    -219.517     179.090
  C     -210.160    -218.229     176.852
  O     -209.759    -219.370     177.606
  C     -209.243    -218.028     175.642
  O     -207.976    -217.465     176.059
  C     -208.857    -219.300     174.901
  O     -209.924    -219.822     174.131
  C     -207.665    -218.815     174.078
  O     -208.092    -218.193     172.857
  C     -207.029    -217.765     175.008
  N     -205.754    -218.192     175.559
  C     -204.730    -217.241     175.586
  O     -204.902    -216.130     175.087
  N     -203.535    -217.580     176.168
  C     -203.340    -218.794     176.583
  N     -202.141    -219.068     177.165
  C     -204.346    -219.865     176.447
  C     -205.518    -219.497     175.935
  O     -211.841    -219.391     179.155
  O     -209.877    -220.973     179.552
  H     -210.570    -221.627     179.339
  H     -207.283    -217.987     172.346
  H     -204.128    -220.872     176.768
  H     -206.321    -220.218     175.812
  H     -206.889    -216.819     174.470
  H     -206.993    -219.634     173.803
  H     -208.516    -220.052     175.625
  H     -209.732    -217.321     174.958
  H     -201.478    -218.309     177.253
  H     -210.093    -217.347     177.497
  H     -201.898    -219.971     177.545
  H     -211.201    -218.353     176.538
  P     -210.285    -221.372     174.343
  C     -212.724    -221.482     173.465
  O     -211.361    -221.778     173.230
  O     -211.120    -221.380     175.709
  O     -209.098    -222.277     174.430
  H     -210.882    -222.166     176.235
  H     -213.226    -221.357     172.504
  H     -212.843    -220.565     174.051
  H     -213.186    -222.317     173.999
  H     -209.446    -216.782     181.181
  H     -211.012    -217.558     181.176
  H     -210.476    -216.664     179.774

 3  4  5  6  7  8  9  10  11  12  13  24  27  28  29  30  32 0
 6-311+G(2d,p)
 ****
 34  35 0
 6-311+G(2d,p)
 ****
 1  2  14  15  16  17  18  19  20  21  22  23  25  26 0
 3-21G
 ****
 31  33  36  37  38  39  40  41  42  43  44  45  46 0
 3-21G
 ****


