%nproc=1
%NoSave
%Mem=1900MB
#P OB98/GEN NMR

erre ene a

0 1
  C     -117.947      57.263     -81.861
  O     -117.835      58.353     -82.782
  P     -118.535      59.737     -82.377
  C     -119.820      60.055     -84.623
  O     -118.846      60.561     -83.714
  C     -120.011      61.027     -85.787
  O     -118.820      61.113     -86.594
  C     -121.113      60.606     -86.745
  O     -122.386      60.911     -86.209
  C     -120.767      61.401     -87.998
  O     -121.404      62.688     -88.003
  C     -119.230      61.547     -87.906
  N     -118.531      60.813     -88.947
  C     -118.586      61.370     -90.230
  O     -119.219      62.409     -90.430
  N     -117.945      60.721     -91.255
  C     -117.328      59.604     -91.025
  N     -116.715      59.003     -92.080
  C     -117.270      58.969     -89.689
  C     -117.888      59.622     -88.706
  O     -117.348      60.567     -81.698
  O     -119.698      59.578     -81.449
  H     -121.043      63.158     -88.782
  H     -117.697      61.141     -80.994
  H     -116.750      58.033     -89.548
  H     -117.900      59.226     -87.695
  H     -118.943      62.603     -87.987
  H     -121.097      60.883     -88.904
  H     -121.036      59.531     -86.955
  H     -120.233      62.024     -85.376
  H     -116.778      59.466     -92.980
  H     -120.769      59.898     -84.107
  H     -116.212      58.128     -92.015
  H     -119.491      59.072     -84.980
  P     -123.301      59.697     -85.715
  C     -125.394      60.652     -86.854
  O     -124.786      60.299     -85.627
  O     -122.899      59.581     -84.164
  O     -123.153      58.394     -86.426
  H     -123.325      58.801     -83.765
  H     -126.455      60.845     -86.675
  H     -125.304      59.839     -87.578
  H     -124.933      61.561     -87.250
  H     -117.438      56.409     -82.256
  H     -118.980      57.026     -81.713
  H     -117.507      57.540     -80.926

 3  4  5  6  7  8  9  10  11  12  13  21  23  27  28  29  30  32 0
 6-311+G(2d,p)
 ****
 34  35 0
 6-311+G(2d,p)
 ****
 1  2  14  15  16  17  18  19  20  22  24  25  26 0
 3-21G
 ****
 31  33  36  37  38  39  40  41  42  43  44  45  46 0
 3-21G
 ****


