%nproc=1
%NoSave
%Mem=1900MB
#P OB98/GEN NMR

erre ene a

0 1
  C       49.477     294.676     233.442
  O       50.822     294.263     233.744
  P       51.655     293.603     232.542
  C       54.060     294.011     233.449
  O       53.045     293.061     233.138
  C       55.006     293.441     234.502
  O       54.354     293.281     235.786
  C       55.540     292.050     234.152
  O       56.542     292.130     233.145
  C       56.044     291.588     235.515
  O       57.329     292.168     235.801
  C       54.985     292.172     236.465
  N       53.545     288.893     240.127
  C       54.610     289.719     240.019
  N       54.928     290.559     239.007
  C       53.994     290.508     238.041
  C       52.849     289.721     238.011
  C       52.640     288.881     239.121
  N       51.554     288.030     239.221
  N       52.139     289.944     236.847
  C       52.852     290.833     236.177
  N       53.975     291.211     236.863
  O       52.090     294.866     231.655
  O       50.875     292.611     231.740
  H       57.970     291.793     235.156
  H       51.586     294.878     230.822
  H       55.306     289.692     240.854
  H       52.590     291.226     235.203
  H       55.435     292.568     237.380
  H       56.156     290.501     235.583
  H       54.719     291.406     233.813
  H       55.847     294.143     234.627
  H       53.615     294.937     233.813
  H       51.519     287.400     240.004
  H       50.924     287.953     238.434
  H       54.597     294.262     232.528
  P       56.326     291.246     231.822
  C       56.130     293.344     230.355
  O       56.894     292.193     230.645
  O       54.749     291.339     231.616
  O       56.905     289.870     231.880
  H       54.421     292.252     231.729
  H       56.639     293.917     229.566
  H       56.037     293.976     231.246
  H       55.132     293.055     229.996
  H       49.028     295.098     234.317
  H       48.907     293.829     233.122
  H       49.495     295.409     232.662

 3  4  5  6  7  8  9  10  11  12  22  25  29  30  31  32 0
 6-311+G(2d,p)
 ****
 33  36  37 0
 6-311+G(2d,p)
 ****
 1  2  13  14  15  16  17  18  19  20  21  23  24  26 0
 3-21G
 ****
 27  28  34  35  38  39  40  41  42  43  44  45  46  47  48 0
 3-21G
 ****


