%nproc=1
%NoSave
%Mem=1900MB
#P OB98/GEN NMR

erre ene a

0 1
  C      347.506     139.608      30.590
  O      348.184     138.548      31.241
  H      346.921     139.197      29.764
  H      348.232     140.320      30.188
  H      346.830     140.114      31.284
  P      348.910     138.909      32.621
  C      351.319     138.602      31.625
  O      350.357     138.206      32.597
  C      352.636     137.870      31.863
  O      353.311     138.394      33.025
  C      352.480     136.391      32.174
  O      352.123     135.631      31.040
  C      353.871     136.068      32.706
  O      354.793     135.783      31.646
  C      354.257     137.378      33.435
  N      354.295     137.203      34.876
  C      355.236     136.275      35.341
  O      355.972     135.689      34.547
  N      355.287     136.011      36.685
  C      354.457     136.599      37.490
  N      354.542     136.268      38.809
  C      353.450     137.582      37.040
  C      353.422     137.833      35.732
  O      348.096     138.031      33.681
  O      348.957     140.364      32.941
  H      355.551     135.320      32.058
  H      347.986     137.102      33.419
  H      352.790     138.053      37.753
  H      352.716     138.540      35.313
  H      355.247     137.722      33.105
  H      353.860     135.190      33.358
  H      351.761     136.250      32.993
  H      353.278     138.030      30.988
  H      355.208     135.551      39.066
  H      351.475     139.686      31.658
  H      353.896     136.603      39.513
  H      350.916     138.355      30.638
  P      350.639     135.058      30.857
  C      351.547     132.684      30.426
  O      350.757     133.756      29.921
  O      349.619     136.049      30.406
  O      350.320     134.409      32.289
  H      350.931     133.703      32.560
  H      351.550     131.880      29.720
  H      351.135     132.343      31.353
  H      352.549     133.023      30.585

 6  7  8  9  10  11  12  13  14  15  16  26  30  31  32  33  35 0
 6-311+G(2d,p)
 ****
 37  38 0
 6-311+G(2d,p)
 ****
 1  2  3  4  5  17  18  19  20  21  22  23  24  25 0
 3-21G
 ****
 27  28  29  34  36  39  40  41  42  43  44  45  46 0
 3-21G
 ****


