%nproc=1
%NoSave
%Mem=1900MB
#P OB98/GEN NMR

erre ene a

0 1
  C      287.040    -169.080    -105.409
  O      286.196    -169.636    -106.400
  P      284.760    -169.008    -106.728
  C      282.520    -168.804    -105.476
  O      283.858    -169.278    -105.424
  C      281.821    -168.950    -104.121
  O      282.429    -168.038    -103.162
  C      280.315    -168.663    -104.141
  O      279.724    -169.538    -103.171
  C      280.248    -167.220    -103.666
  O      278.962    -166.856    -103.185
  C      281.376    -167.210    -102.617
  N      281.832    -165.859    -102.322
  C      281.266    -165.235    -101.206
  O      280.364    -165.797    -100.572
  N      281.682    -163.973    -100.861
  C      282.524    -163.347    -101.633
  N      282.908    -162.101    -101.247
  C      283.051    -163.919    -102.889
  C      282.677    -165.170    -103.161
  O      284.151    -169.451    -108.017
  O      285.009    -167.429    -106.651
  H      278.318    -166.947    -103.921
  H      285.464    -167.111    -107.473
  H      283.701    -163.341    -103.528
  H      283.014    -165.675    -104.058
  H      281.037    -167.683    -101.681
  H      280.497    -166.548    -104.496
  H      279.855    -168.805    -105.122
  H      282.004    -169.971    -103.756
  H      282.535    -161.757    -100.368
  H      281.977    -169.403    -106.212
  H      283.613    -161.565    -101.730
  H      282.502    -167.765    -105.809
  P      278.161    -169.896    -103.215
  C      275.982    -168.852    -102.359
  O      277.389    -168.714    -102.456
  O      277.813    -171.275    -102.746
  O      277.744    -169.677    -104.748
  H      276.884    -170.111    -104.917
  H      275.607    -168.160    -101.594
  H      275.709    -169.876    -102.073
  H      275.524    -168.610    -103.322
  H      287.945    -169.648    -105.351
  H      286.542    -169.104    -104.462
  H      287.271    -168.067    -105.665

 3  4  5  6  7  8  9  10  11  12  13  23  27  28  29  30  32 0
 6-311+G(2d,p)
 ****
 34  35 0
 6-311+G(2d,p)
 ****
 1  2  14  15  16  17  18  19  20  21  22  24  25  26 0
 3-21G
 ****
 31  33  36  37  38  39  40  41  42  43  44  45  46 0
 3-21G
 ****


