%nproc=1
%NoSave
%Mem=1900MB
#P OB98/GEN NMR

erre ene a

0 1
  C      -28.088     156.580     -41.158
  O      -29.205     155.896     -40.629
  H      -27.207     155.943     -41.050
  H      -27.916     157.511     -40.614
  H      -28.237     156.790     -42.221
  P      -30.623     156.642     -40.605
  C      -31.698     154.325     -40.976
  O      -31.721     155.534     -40.225
  C      -32.075     153.140     -40.079
  O      -31.032     152.991     -39.085
  C      -33.409     153.356     -39.350
  O      -34.328     152.281     -39.535
  C      -32.981     153.680     -37.925
  O      -33.938     153.366     -36.934
  C      -31.648     152.935     -37.785
  N      -30.760     153.495     -36.769
  C      -30.802     152.922     -35.501
  O      -31.506     151.969     -35.176
  N      -29.967     153.487     -34.571
  C      -29.129     154.541     -34.776
  O      -28.400     154.999     -33.904
  C      -29.147     155.117     -36.128
  C      -29.951     154.577     -37.049
  O      -30.947     157.454     -41.813
  O      -30.560     157.550     -39.287
  H      -34.793     153.750     -37.215
  H      -30.385     158.476     -39.537
  H      -29.980     153.073     -33.652
  H      -28.502     155.961     -36.325
  H      -29.988     154.976     -38.058
  H      -31.820     151.887     -37.535
  H      -32.795     154.760     -37.860
  H      -33.945     154.218     -39.764
  H      -32.087     152.228     -40.686
  H      -30.687     154.194     -41.373
  H      -32.403     154.397     -41.811
  P      -35.557     152.302     -40.553
  C      -35.332     149.696     -40.375
  O      -36.155     150.821     -40.643
  O      -35.315     153.013     -41.841
  O      -36.691     153.121     -39.748
  H      -37.211     153.608     -40.420
  H      -35.906     148.800     -40.485
  H      -34.957     149.759     -39.375
  H      -34.513     149.682     -41.063

 6  7  8  9  10  11  12  13  14  15  16  26  31  32  33  34  35 0
 6-311+G(2d,p)
 ****
 36  37 0
 6-311+G(2d,p)
 ****
 1  2  3  4  5  17  18  19  20  21  22  23  24  25 0
 3-21G
 ****
 27  28  29  30  38  39  40  41  42  43  44  45 0
 3-21G
 ****


