%nproc=1
%NoSave
%Mem=1900MB
#P OB98/GEN NMR

erre ene a

0 1
  C      209.075      48.449      20.883
  O      209.771      49.671      20.972
  P      209.227      50.946      21.758
  C      207.782      51.722      19.721
  O      207.832      51.392      21.104
  C      207.466      53.211      19.522
  O      207.697      53.550      18.130
  C      205.990      53.520      19.819
  O      205.782      54.728      20.540
  C      205.336      53.404      18.449
  O      204.085      54.067      18.357
  C      206.439      53.930      17.534
  N      204.029      54.039      13.063
  C      203.894      54.887      14.143
  N      202.861      55.757      14.090
  N      204.678      54.855      15.189
  C      205.593      53.858      15.149
  C      205.822      52.960      14.133
  C      204.970      53.028      12.969
  O      204.981      52.224      12.038
  N      206.787      52.047      14.469
  C      207.120      52.371      15.702
  N      206.398      53.445      16.170
  O      210.223      52.011      22.080
  O      208.747      50.289      23.153
  H      203.739      53.921      17.457
  H      208.911      50.951      23.854
  H      203.341      54.061      12.317
  H      207.850      51.848      16.310
  H      206.416      55.019      17.466
  H      205.147      52.341      18.262
  H      202.157      55.705      13.368
  H      205.563      52.756      20.480
  H      202.592      56.207      14.960
  H      208.152      53.810      20.129
  H      206.987      51.106      19.286
  H      208.721      51.456      19.229
  P      204.649      55.073      21.610
  C      202.874      56.058      20.041
  O      203.221      54.981      20.890
  O      204.805      56.641      21.888
  O      204.747      54.310      22.890
  H      204.666      56.819      22.837
  H      201.801      56.015      19.840
  H      203.416      55.969      19.095
  H      203.111      57.017      20.512
  H      209.647      47.754      20.304
  H      208.128      48.611      20.412
  H      208.921      48.054      21.865

 3  4  5  6  7  8  9  10  11  12  23  26  30  31 0
 6-311+G(2d,p)
 ****
 33  35  36  37  38 0
 6-311+G(2d,p)
 ****
 1  2  13  14  15  16  17  18  19  20  21  22  24  25 0
 3-21G
 ****
 27  28  29  32  34  39  40  41  42  43  44  45  46  47  48  49 0
 3-21G
 ****


