%nproc=1
%NoSave
%Mem=1900MB
#P OB98/GEN NMR

erre ene a

0 1
  C     -101.264     536.742    -101.023
  O     -100.239     535.764    -100.982
  H     -101.381     537.126    -102.039
  H     -102.200     536.278    -100.705
  H     -101.025     537.563    -100.342
  P      -98.765     536.249    -101.387
  C      -97.459     536.336    -103.633
  O      -98.726     536.282    -102.992
  C      -97.638     536.363    -105.148
  O      -98.154     535.101    -105.611
  C      -98.606     537.427    -105.654
  O      -98.007     538.712    -105.718
  C      -98.911     536.878    -107.049
  O      -97.831     537.211    -107.945
  C      -98.944     535.367    -106.801
  N     -103.357     534.149    -109.105
  C     -102.169     534.579    -109.590
  N     -101.031     534.854    -108.918
  C     -101.200     534.642    -107.600
  C     -102.334     534.182    -106.959
  C     -103.461     533.935    -107.771
  N     -104.687     533.564    -107.248
  N     -102.124     534.099    -105.591
  C     -100.885     534.515    -105.418
  N     -100.286     534.843    -106.602
  O      -97.855     534.986    -101.006
  O      -98.295     537.495    -100.704
  H      -97.799     538.185    -107.990
  H      -97.461     535.128    -100.127
  H     -102.127     534.716    -110.668
  H     -100.399     534.597    -104.458
  H      -98.490     534.803    -107.618
  H      -99.831     537.294    -107.480
  H      -99.531     537.431    -105.063
  H      -96.639     536.501    -105.598
  H      -96.867     535.455    -103.347
  H     -105.474     533.867    -107.811
  H     -104.774     533.680    -106.244
  H      -96.931     537.233    -103.294
  P      -98.977     539.988    -105.712
  C     -100.211     541.282    -107.577
  O      -99.655     540.046    -107.170
  O      -97.947     541.215    -105.731
  O      -99.910     540.074    -104.558
  H      -98.124     541.804    -104.965
  H     -100.625     541.181    -108.558
  H      -99.447     542.031    -107.588
  H     -100.982     541.569    -106.892

 6  7  8  9  10  11  12  13  14  15  25  28  32  33  34  35 0
 6-311+G(2d,p)
 ****
 36  39  40 0
 6-311+G(2d,p)
 ****
 1  2  3  4  5  16  17  18  19  20  21  22  23  24 0
 3-21G
 ****
 26  27  29  30  31  37  38  41  42  43  44  45  46  47  48 0
 3-21G
 ****


