%nproc=1
%NoSave
%Mem=1900MB
#P OB98/GEN NMR

erre ene a

0 1
  C     -416.181     655.779     -41.546
  O     -416.283     657.178     -41.338
  H     -416.313     655.545     -42.607
  H     -415.182     655.455     -41.235
  H     -416.927     655.252     -40.946
  P     -417.693     657.851     -41.712
  C     -416.424     659.533     -43.226
  O     -417.484     658.588     -43.120
  C     -416.324     660.043     -44.662
  O     -415.277     661.042     -44.761
  C     -415.962     658.974     -45.696
  O     -417.097     658.200     -46.064
  C     -415.480     659.840     -46.848
  O     -416.613     660.376     -47.558
  C     -414.731     660.971     -46.113
  N     -410.416     660.411     -48.799
  C     -411.677     660.690     -49.173
  N     -412.775     660.845     -48.401
  C     -412.459     660.698     -47.095
  C     -411.210     660.429     -46.565
  C     -410.148     660.274     -47.475
  N     -408.863     659.914     -47.078
  N     -411.285     660.327     -45.185
  C     -412.551     660.513     -44.899
  N     -413.306     660.745     -46.021
  O     -417.801     659.054     -40.654
  O     -418.875     656.938     -41.628
  H     -417.215     660.747     -46.881
  H     -418.349     658.770     -39.898
  H     -411.843     660.803     -50.244
  H     -412.978     660.488     -43.908
  H     -414.901     661.947     -46.578
  H     -414.870     659.290     -47.574
  H     -415.138     658.343     -45.349
  H     -417.278     660.527     -44.923
  H     -415.483     659.056     -42.942
  H     -408.353     659.399     -47.789
  H     -408.802     659.575     -46.124
  H     -416.624     660.368     -42.545
  P     -416.907     657.091     -47.208
  C     -417.511     658.673     -49.166
  O     -416.502     657.878     -48.550
  O     -418.407     656.607     -47.491
  O     -416.030     655.940     -46.843
  H     -418.472     655.637     -47.369
  H     -417.112     659.139     -50.043
  H     -417.840     659.426     -48.481
  H     -418.339     658.052     -49.437

 6  7  8  9  10  11  12  13  14  15  25  28  32  33  34  35 0
 6-311+G(2d,p)
 ****
 36  39  40 0
 6-311+G(2d,p)
 ****
 1  2  3  4  5  16  17  18  19  20  21  22  23  24 0
 3-21G
 ****
 26  27  29  30  31  37  38  41  42  43  44  45  46  47  48 0
 3-21G
 ****


