%nproc=1
%NoSave
%Mem=1900MB
#P OB98/GEN NMR

erre ene a

0 1
  C     -473.345    -710.380    -212.010
  O     -472.010    -710.007    -211.667
  P     -471.827    -708.710    -210.726
  C     -470.134    -709.726    -209.018
  O     -471.454    -709.266    -209.266
  C     -470.153    -711.251    -208.816
  O     -470.548    -711.918    -210.027
  C     -468.798    -711.838    -208.410
  O     -468.565    -711.677    -207.027
  C     -468.953    -713.283    -208.846
  O     -469.700    -714.042    -207.861
  C     -469.775    -713.146    -210.138
  N     -469.339    -714.947    -214.861
  C     -470.203    -715.311    -213.835
  N     -471.103    -716.263    -214.133
  N     -470.184    -714.792    -212.641
  C     -469.212    -713.864    -212.477
  C     -468.299    -713.409    -213.406
  C     -468.358    -713.952    -214.744
  O     -467.683    -713.585    -215.706
  N     -467.458    -712.465    -212.876
  C     -467.896    -712.302    -211.634
  N     -468.974    -713.124    -211.356
  O     -473.316    -708.170    -210.554
  O     -470.886    -707.678    -211.250
  H     -469.143    -714.171    -207.073
  H     -473.483    -707.428    -211.186
  H     -469.411    -715.363    -215.767
  H     -467.476    -711.623    -210.906
  H     -470.494    -713.968    -210.271
  H     -468.005    -713.791    -208.969
  H     -471.170    -716.735    -215.025
  H     -467.996    -711.370    -209.007
  H     -471.750    -716.556    -213.405
  H     -470.908    -711.471    -208.043
  H     -469.750    -709.240    -208.115
  H     -469.482    -709.470    -209.872
  P     -467.437    -710.629    -206.574
  C     -469.180    -708.952    -205.579
  O     -468.130    -709.179    -206.526
  O     -466.479    -710.542    -207.872
  O     -466.680    -711.018    -205.358
  H     -465.551    -710.435    -207.574
  H     -469.178    -707.912    -205.297
  H     -469.040    -709.581    -204.700
  H     -470.140    -709.199    -206.065
  H     -473.323    -711.250    -212.633
  H     -473.816    -709.576    -212.536
  H     -473.896    -710.594    -211.118

 3  4  5  6  7  8  9  10  11  12  23  26  30  31 0
 6-311+G(2d,p)
 ****
 33  35  36  37  38 0
 6-311+G(2d,p)
 ****
 1  2  13  14  15  16  17  18  19  20  21  22  24  25 0
 3-21G
 ****
 27  28  29  32  34  39  40  41  42  43  44  45  46  47  48  49 0
 3-21G
 ****


