%nproc=1
%NoSave
%Mem=1900MB
#P OB98/GEN NMR

erre ene a

0 1
  C     -222.436    -442.911     608.408
  O     -221.504    -442.299     607.523
  P     -220.337    -441.304     607.962
  C     -220.628    -439.722     605.879
  O     -219.785    -440.559     606.658
  C     -220.056    -439.520     604.466
  O     -219.082    -438.441     604.509
  C     -219.325    -440.767     603.940
  O     -219.598    -441.051     602.574
  C     -217.884    -440.497     604.323
  O     -216.946    -441.266     603.581
  C     -217.785    -438.980     604.158
  N     -213.708    -435.906     604.307
  C     -214.414    -436.373     603.209
  N     -213.971    -435.988     601.993
  N     -215.453    -437.164     603.300
  C     -215.739    -437.538     604.571
  C     -215.103    -437.158     605.728
  C     -213.989    -436.243     605.623
  O     -213.339    -435.781     606.559
  N     -215.689    -437.732     606.828
  C     -216.655    -438.478     606.334
  N     -216.734    -438.384     604.964
  O     -219.322    -441.859     608.901
  O     -221.118    -440.123     608.737
  H     -216.054    -440.995     603.859
  H     -220.506    -439.797     609.428
  H     -212.933    -435.283     604.178
  H     -217.337    -439.083     606.918
  H     -217.570    -438.696     603.128
  H     -217.761    -440.777     605.375
  H     -213.114    -435.487     601.845
  H     -219.674    -441.665     604.463
  H     -214.353    -436.509     601.199
  H     -220.866    -439.218     603.799
  H     -220.670    -438.764     606.403
  H     -221.642    -440.124     605.847
  P     -220.790    -441.908     601.948
  C     -219.291    -442.612     599.990
  O     -220.538    -442.057     600.373
  O     -222.069    -440.949     602.018
  O     -221.069    -443.199     602.650
  H     -222.753    -441.359     602.581
  H     -219.140    -442.418     598.923
  H     -219.305    -443.696     600.148
  H     -218.475    -442.163     600.558
  H     -223.107    -443.528     607.848
  H     -222.992    -442.154     608.920
  H     -221.910    -443.511     609.121

 3  4  5  6  7  8  9  10  11  12  23  26  30  31 0
 6-311+G(2d,p)
 ****
 33  35  36  37  38 0
 6-311+G(2d,p)
 ****
 1  2  13  14  15  16  17  18  19  20  21  22  24  25 0
 3-21G
 ****
 27  28  29  32  34  39  40  41  42  43  44  45  46  47  48  49 0
 3-21G
 ****


