%nproc=1
%NoSave
%Mem=1900MB
#P OB98/GEN NMR

erre ene a

0 1
  C       29.632     116.618     195.113
  O       29.895     115.324     195.613
  H       30.319     116.819     194.286
  H       29.791     117.369     195.890
  H       28.607     116.681     194.736
  P       29.064     114.804     196.880
  C       31.100     113.860     198.157
  O       29.877     113.562     197.489
  C       31.995     112.616     198.199
  O       32.697     112.537     196.934
  C       33.036     112.679     199.326
  O       33.021     111.529     200.167
  C       34.331     112.999     198.589
  O       35.505     112.562     199.242
  C       34.103     112.381     197.205
  N       34.903     112.990     196.144
  C       36.209     112.536     195.989
  O       36.733     111.647     196.656
  N       36.932     113.146     194.996
  C       36.493     114.141     194.175
  O       37.186     114.644     193.299
  C       35.112     114.593     194.403
  C       34.392     114.008     195.363
  O       27.615     114.545     196.641
  O       29.282     115.948     197.980
  H       36.256     112.706     198.631
  H       28.484     116.507     198.031
  H       37.875     112.817     194.867
  H       34.733     115.388     193.775
  H       33.369     114.317     195.556
  H       34.330     111.314     197.219
  H       34.407     114.088     198.484
  H       32.813     113.499     200.018
  H       31.361     111.727     198.282
  H       30.857     114.187     199.172
  H       31.616     114.671     197.634
  P       33.394     111.532     201.719
  C       33.797     108.956     202.008
  O       33.016     110.101     202.326
  O       32.948     112.730     202.486
  O       35.007     111.528     201.712
  H       35.291     112.034     202.502
  H       33.392     108.099     202.504
  H       34.805     109.111     202.330
  H       33.781     108.796     200.950

 6  7  8  9  10  11  12  13  14  15  16  26  31  32  33  34  35 0
 6-311+G(2d,p)
 ****
 36  37 0
 6-311+G(2d,p)
 ****
 1  2  3  4  5  17  18  19  20  21  22  23  24  25 0
 3-21G
 ****
 27  28  29  30  38  39  40  41  42  43  44  45 0
 3-21G
 ****


