%nproc=1
%NoSave
%Mem=1900MB
#P OB98/GEN NMR

erre ene a

0 1
  C     -204.023     685.710     607.168
  O     -203.125     686.512     607.912
  H     -203.678     684.674     607.198
  H     -204.043     686.045     606.128
  H     -205.028     685.761     607.598
  P     -203.579     688.023     608.185
  C     -204.444     687.627     610.630
  O     -204.752     687.977     609.289
  C     -205.361     688.375     611.591
  O     -205.330     689.795     611.326
  C     -206.830     688.015     611.459
  O     -207.127     686.739     611.979
  C     -207.472     689.155     612.243
  O     -207.492     688.879     613.651
  C     -206.530     690.340     611.932
  N     -207.166     691.330     611.087
  C     -207.013     692.661     611.505
  O     -206.354     692.918     612.508
  N     -207.641     693.648     610.795
  C     -208.384     693.340     609.776
  N     -209.003     694.366     609.128
  C     -208.571     691.951     609.304
  C     -207.943     691.008     609.997
  O     -204.360     688.397     606.838
  O     -202.468     688.959     608.529
  H     -207.729     689.722     614.093
  H     -205.015     687.735     606.569
  H     -209.187     691.748     608.439
  H     -208.030     689.964     609.726
  H     -206.209     690.832     612.860
  H     -208.506     689.325     611.936
  H     -207.150     688.104     610.412
  H     -204.996     688.202     612.615
  H     -208.889     695.294     609.520
  H     -203.396     687.844     610.855
  H     -209.661     694.239     608.376
  H     -204.585     686.547     610.732
  P     -208.141     685.749     611.233
  C     -206.514     683.881     610.526
  O     -207.294     684.992     610.094
  O     -209.402     686.376     610.741
  O     -208.367     684.587     612.310
  H     -207.559     684.110     612.574
  H     -205.998     683.460     609.688
  H     -207.155     683.141     610.958
  H     -205.803     684.207     611.256

 6  7  8  9  10  11  12  13  14  15  16  26  30  31  32  33  35 0
 6-311+G(2d,p)
 ****
 37  38 0
 6-311+G(2d,p)
 ****
 1  2  3  4  5  17  18  19  20  21  22  23  24  25 0
 3-21G
 ****
 27  28  29  34  36  39  40  41  42  43  44  45  46 0
 3-21G
 ****


