%nproc=1
%NoSave
%Mem=1900MB
#P OB98/GEN NMR

erre ene a

0 1
  C     -103.789     -69.669     269.405
  O     -103.261     -70.779     268.712
  H     -104.154     -70.006     270.379
  H     -104.627     -69.250     268.843
  H     -103.031     -68.898     269.563
  P     -102.265     -70.518     267.487
  C     -104.272     -70.286     265.878
  O     -103.065     -69.705     266.354
  C     -104.576     -69.862     264.440
  O     -104.450     -68.427     264.320
  C     -103.602     -70.476     263.431
  O     -103.975     -71.761     262.960
  C     -103.628     -69.449     262.301
  O     -104.684     -69.734     261.365
  C     -103.899     -68.127     263.029
  N     -100.648     -64.839     260.847
  C     -101.654     -65.586     260.257
  N     -101.770     -65.463     258.917
  N     -102.440     -66.384     260.927
  C     -102.137     -66.479     262.240
  C     -101.152     -65.804     262.932
  C     -100.328     -64.868     262.195
  O      -99.437     -64.169     262.674
  N     -101.109     -66.184     264.251
  C     -102.004     -67.151     264.333
  N     -102.707     -67.307     263.159
  O     -102.110     -71.972     266.820
  O     -100.922     -69.962     267.854
  H     -104.571     -70.654     261.056
  H     -101.223     -72.056     266.428
  H     -100.091     -64.219     260.283
  H     -102.217     -67.730     265.224
  H     -104.646     -67.524     262.496
  H     -102.694     -69.465     261.736
  H     -101.139     -64.931     258.343
  H     -102.587     -70.505     263.839
  H     -102.368     -66.133     258.421
  H     -105.618     -70.115     264.198
  H     -105.066     -69.942     266.545
  H     -104.225     -71.375     265.955
  P     -102.889     -72.757     262.343
  C     -102.771     -71.529     260.023
  O     -102.107     -71.995     261.181
  O     -103.780     -73.819     261.551
  O     -101.983     -73.413     263.331
  H     -103.907     -74.631     262.081
  H     -102.066     -71.050     259.376
  H     -103.530     -70.829     260.304
  H     -103.220     -72.355     259.512

 6  7  8  9  10  11  12  13  14  15  26  29  33  34 0
 6-311+G(2d,p)
 ****
 36  38  39  40  41 0
 6-311+G(2d,p)
 ****
 1  2  3  4  5  16  17  18  19  20  21  22  23  24  25 0
 3-21G
 ****
 27  28  30  31  32  35  37  42  43  44  45  46  47 0
 3-21G
 ****
 48  49 0
 3-21G
 ****


