%nproc=1
%NoSave
%Mem=1900MB
#P OB98/GEN NMR

erre ene a

0 1
  C      333.070    -537.756      88.621
  O      332.099    -537.648      89.642
  P      331.553    -538.956      90.398
  C      330.274    -541.080      89.687
  O      330.835    -539.833      89.263
  C      328.937    -541.335      88.989
  O      329.130    -541.523      87.567
  C      328.219    -542.590      89.477
  O      327.590    -542.350      90.723
  C      327.251    -542.841      88.320
  O      326.072    -542.018      88.434
  C      328.093    -542.409      87.094
  N      328.644    -543.553      86.366
  C      327.853    -544.066      85.347
  O      326.732    -543.589      85.121
  N      328.304    -545.150      84.641
  C      329.456    -545.674      84.946
  N      329.845    -546.761      84.207
  C      330.310    -545.177      86.038
  C      329.848    -544.125      86.708
  O      330.743    -538.699      91.623
  O      332.899    -539.784      90.698
  H      325.489    -542.471      89.088
  H      333.420    -539.381      91.429
  H      331.258    -545.662      86.258
  H      330.418    -543.696      87.515
  H      327.482    -541.815      86.401
  H      326.917    -543.882      88.280
  H      328.925    -543.425      89.541
  H      328.300    -540.453      89.128
  H      329.219    -547.095      83.487
  H      330.118    -541.039      90.773
  H      330.702    -547.276      84.387
  H      330.987    -541.895      89.481
  P      327.146    -543.594      91.643
  C      325.601    -545.630      91.435
  O      326.013    -544.395      90.861
  O      326.838    -543.248      93.072
  O      328.412    -544.581      91.569
  H      328.604    -544.915      92.458
  H      324.627    -545.907      91.015
  H      325.511    -545.543      92.527
  H      326.329    -546.408      91.198
  H      333.302    -536.782      88.245
  H      332.687    -538.363      87.827
  H      333.956    -538.205      89.018

 3  4  5  6  7  8  9  10  11  12  13  23  27  28  29  30  32 0
 6-311+G(2d,p)
 ****
 34  35 0
 6-311+G(2d,p)
 ****
 1  2  14  15  16  17  18  19  20  21  22  24  25  26 0
 3-21G
 ****
 31  33  36  37  38  39  40  41  42  43  44  45  46 0
 3-21G
 ****


