%nproc=1
%NoSave
%Mem=1900MB
#P OB98/GEN NMR

erre ene a

0 1
  C      739.537    -655.726    1011.016
  O      739.060    -654.698    1011.873
  P      737.670    -654.968    1012.638
  C      735.935    -653.624    1011.191
  O      736.532    -654.887    1011.520
  C      734.979    -653.791    1010.023
  O      735.611    -654.565    1008.954
  C      733.699    -654.548    1010.346
  O      732.807    -653.749    1011.092
  C      733.217    -654.934    1008.950
  O      732.544    -653.819    1008.343
  C      734.552    -655.221    1008.215
  N      734.825    -656.635    1008.057
  C      734.278    -657.227    1006.910
  O      733.590    -656.624    1006.105
  N      734.514    -658.579    1006.759
  C      735.237    -659.358    1007.622
  O      735.428    -660.551    1007.423
  C      735.748    -658.701    1008.830
  C      735.528    -657.381    1009.003
  O      737.508    -653.592    1013.482
  O      737.698    -656.210    1013.471
  H      737.841    -652.824    1012.987
  H      733.190    -653.091    1008.293
  H      734.166    -659.004    1005.935
  H      736.270    -659.296    1009.551
  H      735.879    -656.876    1009.891
  H      734.536    -654.752    1007.228
  H      732.510    -655.776    1008.963
  H      733.955    -655.467    1010.913
  H      734.726    -652.794    1009.616
  H      736.706    -652.910    1010.925
  H      735.405    -653.247    1012.074
  P      732.559    -654.157    1012.621
  C      730.118    -655.060    1012.251
  O      731.464    -655.330    1012.628
  O      731.757    -652.875    1013.168
  O      733.821    -654.476    1013.379
  H      731.068    -652.574    1012.571
  H      729.640    -655.980    1011.990
  H      730.057    -654.362    1011.412
  H      729.581    -654.627    1013.113
  H      740.462    -655.421    1010.573
  H      738.817    -655.911    1010.246
  H      739.691    -656.620    1011.583

 3  4  5  6  7  8  9  10  11  12  13  24  28  29  30  31  32 0
 6-311+G(2d,p)
 ****
 33  34 0
 6-311+G(2d,p)
 ****
 1  2  14  15  16  17  18  19  20  21  22  23  25  26  27 0
 3-21G
 ****
 35  36  37  38  39  40  41  42  43  44  45 0
 3-21G
 ****


