%nproc=1
%NoSave
%Mem=1900MB
#P OB98/GEN NMR

erre ene a

0 1
  C       65.858     211.055     -93.296
  O       66.138     210.673     -94.647
  P       65.888     209.140     -95.047
  C       68.337     208.423     -94.530
  O       66.952     208.230     -94.269
  C       69.108     207.122     -94.281
  O       68.840     206.603     -92.966
  C       68.721     206.009     -95.237
  O       69.333     206.196     -96.498
  C       69.209     204.770     -94.493
  O       70.566     204.445     -94.836
  C       69.101     205.189     -93.010
  N       68.082     204.441     -92.290
  C       68.482     203.204     -91.774
  O       69.631     202.795     -91.962
  N       67.564     202.453     -91.084
  C       66.350     202.889     -90.945
  N       65.485     202.097     -90.256
  C       65.882     204.175     -91.495
  C       66.791     204.893     -92.152
  O       66.386     209.073     -96.567
  O       64.465     208.707     -94.914
  H       70.807     203.685     -94.267
  H       65.858     208.425     -97.067
  H       64.857     204.491     -91.359
  H       66.536     205.852     -92.591
  H       70.058     205.031     -92.500
  H       68.603     203.891     -94.742
  H       67.629     205.969     -95.345
  H       70.183     207.334     -94.367
  H       65.841     201.219     -89.893
  H       68.733     209.218     -93.892
  H       64.516     202.334     -90.094
  H       68.459     208.761     -95.564
  P       68.392     206.572     -97.736
  C       67.543     204.159     -97.952
  O       67.195     205.506     -97.690
  O       69.252     206.048     -98.984
  O       68.001     208.005     -97.892
  H       68.824     206.305     -99.820
  H       66.698     203.520     -97.685
  H       68.408     203.862     -97.356
  H       67.760     204.032     -99.015
  H       66.068     212.097     -93.169
  H       66.471     210.484     -92.630
  H       64.827     210.870     -93.079

 3  4  5  6  7  8  9  10  11  12  13  21  23  27  28  29  30  32 0
 6-311+G(2d,p)
 ****
 34  35 0
 6-311+G(2d,p)
 ****
 1  2  14  15  16  17  18  19  20  22  24  25  26 0
 3-21G
 ****
 31  33  36  37  38  39  40  41  42  43  44  45  46 0
 3-21G
 ****


