%nproc=1
%NoSave
%Mem=1900MB
#P OB98/GEN NMR

erre ene a

0 1
  C     -330.883      53.077     564.049
  O     -330.288      53.498     562.840
  H     -330.617      53.783     564.834
  H     -330.525      52.078     564.330
  H     -331.977      53.057     563.946
  P     -330.428      52.564     561.548
  C     -330.651      53.037     559.007
  O     -330.177      53.501     560.272
  C     -330.145      53.935     557.869
  O     -330.699      55.280     558.057
  C     -328.612      54.073     557.828
  O     -328.238      54.287     556.450
  C     -328.400      55.344     558.643
  O     -327.104      55.852     558.469
  C     -329.573      56.191     558.137
  N     -329.865      57.324     559.021
  C     -328.884      58.317     559.086
  O     -327.845      58.203     558.430
  N     -329.086      59.391     559.906
  C     -330.150      59.441     560.652
  N     -330.284      60.528     561.456
  C     -331.188      58.371     560.659
  C     -330.984      57.355     559.830
  O     -331.667      51.732     561.476
  O     -329.119      51.641     561.583
  H     -326.424      55.185     558.717
  H     -329.351      50.742     561.880
  H     -332.041      58.454     561.317
  H     -331.677      56.532     559.766
  H     -329.375      56.568     557.136
  H     -328.513      55.134     559.714
  H     -328.092      53.204     558.228
  H     -330.538      53.561     556.920
  H     -329.560      61.226     561.423
  H     -331.745      53.063     559.049
  H     -331.067      60.672     562.103
  H     -330.332      52.010     558.837
  P     -327.575      53.147     555.552
  C     -326.981      53.166     553.028
  O     -326.840      53.826     554.294
  O     -328.503      52.033     555.177
  O     -326.346      52.585     556.431
  H     -326.208      51.645     556.209
  H     -326.449      53.714     552.279
  H     -328.017      53.116     552.765
  H     -326.582      52.175     553.096

 6  7  8  9  10  11  12  13  14  15  16  26  30  31  32  33  35 0
 6-311+G(2d,p)
 ****
 37  38 0
 6-311+G(2d,p)
 ****
 1  2  3  4  5  17  18  19  20  21  22  23  24  25 0
 3-21G
 ****
 27  28  29  34  36  39  40  41  42  43  44  45  46 0
 3-21G
 ****


