%nproc=1
%NoSave
%Mem=1900MB
#P OB98/GEN NMR

erre ene a

0 1
  C       -5.272    -292.301    -265.972
  O       -5.269    -292.985    -267.208
  H       -5.239    -291.225    -266.164
  H       -4.394    -292.581    -265.386
  H       -6.181    -292.532    -265.410
  P       -5.430    -294.579    -267.160
  C       -2.984    -295.184    -267.817
  O       -4.351    -295.172    -268.193
  C       -2.129    -295.663    -268.992
  O       -2.595    -296.979    -269.400
  C       -2.212    -294.746    -270.217
  O       -0.930    -294.699    -270.852
  C       -3.206    -295.457    -271.117
  O       -3.077    -295.121    -272.492
  C       -2.877    -296.923    -270.814
  N       -3.969    -297.828    -271.159
  C       -4.259    -298.000    -272.509
  O       -3.615    -297.503    -273.432
  N       -5.351    -298.782    -272.787
  C       -6.170    -299.375    -271.871
  O       -7.147    -300.047    -272.182
  C       -5.821    -299.151    -270.463
  C       -4.754    -298.399    -270.174
  O       -6.824    -294.833    -267.904
  O       -5.384    -295.192    -265.801
  H       -7.559    -294.827    -267.261
  H       -2.123    -295.140    -272.718
  H       -5.572    -298.918    -273.761
  H       -6.452    -299.599    -269.706
  H       -4.476    -298.204    -269.145
  H       -1.965    -297.227    -271.341
  H       -4.229    -295.220    -270.806
  H       -2.539    -293.736    -269.969
  H       -1.092    -295.779    -268.653
  H       -2.850    -295.867    -266.973
  H       -2.682    -294.176    -267.514
  P        0.231    -293.875    -270.109
  C        0.533    -292.253    -272.136
  O        1.116    -293.214    -271.274
  O        1.141    -295.059    -269.540
  O       -0.294    -292.925    -269.082
  H        1.202    -295.824    -270.136
  H        1.262    -291.922    -272.846
  H        0.191    -291.418    -271.560
  H       -0.295    -292.693    -272.653

 6  7  8  9  10  11  12  13  14  15  16  27  31  32  33  34  35 0
 6-311+G(2d,p)
 ****
 36  37 0
 6-311+G(2d,p)
 ****
 1  2  3  4  5  17  18  19  20  21  22  23  24  25 0
 3-21G
 ****
 26  28  29  30  38  39  40  41  42  43  44  45 0
 3-21G
 ****


