%nproc=1
%NoSave
%Mem=1900MB
#P OB98/GEN NMR

erre ene a

0 1
  C       11.587    -177.628    -108.768
  O       11.281    -177.024    -107.528
  P       11.425    -177.832    -106.153
  C       10.459    -179.964    -105.109
  O       10.327    -178.998    -106.143
  C        9.448    -181.099    -105.272
  O        9.871    -181.971    -106.353
  C        9.263    -181.962    -104.016
  O        7.876    -182.302    -103.933
  C       10.098    -183.191    -104.321
  O        9.698    -184.320    -103.554
  C        9.881    -183.316    -105.832
  N       10.903    -184.129    -106.477
  C       11.033    -185.446    -106.034
  O       10.394    -185.837    -105.054
  N       11.893    -186.279    -106.706
  C       12.687    -185.789    -107.607
  N       13.475    -186.661    -108.295
  C       12.748    -184.346    -107.921
  C       11.810    -183.589    -107.358
  O       11.444    -176.988    -104.923
  O       12.802    -178.638    -106.317
  H       13.374    -178.448    -105.547
  H       10.320    -185.057    -103.729
  H       13.510    -183.965    -108.585
  H       11.754    -182.522    -107.548
  H        8.897    -183.753    -106.047
  H       11.152    -182.984    -104.102
  H        9.564    -181.445    -103.099
  H        8.485    -180.657    -105.571
  H       13.376    -187.645    -108.081
  H       10.283    -179.465    -104.155
  H       13.873    -186.428    -109.203
  H       11.481    -180.360    -105.098
  P        7.239    -182.563    -102.481
  C        7.151    -184.533    -100.792
  O        7.594    -184.063    -102.049
  O        5.673    -182.678    -102.832
  O        7.450    -181.493    -101.459
  H        5.152    -182.442    -102.039
  H        7.541    -185.542    -100.637
  H        6.059    -184.569    -100.762
  H        7.523    -183.888     -99.991
  H       11.426    -176.924    -109.557
  H       10.956    -178.480    -108.915
  H       12.611    -177.938    -108.771

 3  4  5  6  7  8  9  10  11  12  13  24  27  28  29  30  32 0
 6-311+G(2d,p)
 ****
 34  35 0
 6-311+G(2d,p)
 ****
 1  2  14  15  16  17  18  19  20  21  22  23  25  26 0
 3-21G
 ****
 31  33  36  37  38  39  40  41  42  43  44  45  46 0
 3-21G
 ****


