%nproc=1
%NoSave
%Mem=1900MB
#P OB98/GEN NMR

erre ene a

0 1
  C      110.989      99.879     256.223
  O      112.304      99.790     256.783
  P      113.227     101.103     256.717
  C      115.131     101.890     255.093
  O      114.175     100.895     255.440
  C      116.375     101.238     254.493
  O      117.081     100.469     255.497
  C      116.083     100.257     253.366
  O      115.736     100.934     252.168
  C      117.396      99.483     253.307
  O      118.383     100.227     252.572
  C      117.795      99.418     254.800
  N      117.535      98.113     255.400
  C      118.474      97.681     256.337
  O      119.477      98.333     256.633
  N      118.229      96.462     256.909
  C      117.178      95.636     256.620
  O      117.005      94.556     257.174
  C      116.249      96.124     255.587
  C      116.466      97.320     255.034
  O      114.187     100.869     257.969
  O      112.441     102.368     256.746
  H      114.409      99.930     258.115
  H      118.613     101.003     253.123
  H      118.889      96.137     257.596
  H      115.416      95.484     255.318
  H      115.790      97.698     254.269
  H      118.859      99.639     254.917
  H      117.289      98.508     252.817
  H      115.269      99.584     253.659
  H      117.042     102.035     254.139
  H      115.416     102.458     255.982
  H      114.671     102.588     254.386
  P      114.269     100.645     251.570
  C      113.239      98.696     250.162
  O      114.322      99.175     250.933
  O      114.255     101.623     250.298
  O      113.165     100.887     252.547
  H      115.084     101.592     249.787
  H      113.595      97.863     249.544
  H      112.839      99.471     249.506
  H      112.454      98.331     250.829
  H      110.489      98.940     256.335
  H      111.060     100.124     255.184
  H      110.435     100.640     256.732

 3  4  5  6  7  8  9  10  11  12  13  24  28  29  30  31  32 0
 6-311+G(2d,p)
 ****
 33  34 0
 6-311+G(2d,p)
 ****
 1  2  14  15  16  17  18  19  20  21  22  23  25  26  27 0
 3-21G
 ****
 35  36  37  38  39  40  41  42  43  44  45 0
 3-21G
 ****


