%nproc=1
%NoSave
%Mem=1900MB
#P OB98/GEN NMR

erre ene a

0 1
  C      503.307     384.119     100.203
  O      503.129     385.445     100.660
  H      503.863     384.145      99.263
  H      502.342     383.630     100.029
  H      503.886     383.544     100.935
  P      502.105     385.694     101.876
  C      500.201     386.379     100.278
  O      500.640     385.446     101.259
  C      498.740     386.137      99.897
  O      498.289     387.121      98.939
  C      498.485     384.795      99.221
  O      498.685     383.672     100.048
  C      497.124     385.022      98.580
  O      496.048     384.825      99.493
  C      497.219     386.516      98.183
  N      497.414     386.691      96.751
  C      496.318     386.383      95.936
  O      495.252     385.955      96.377
  N      496.501     386.545      94.595
  C      497.663     386.936      93.980
  O      497.766     387.045      92.772
  C      498.794     387.219      94.882
  C      498.617     387.086      96.200
  O      502.246     387.008     102.590
  O      502.323     384.421     102.822
  H      496.095     385.544     100.147
  H      501.930     384.574     103.720
  H      495.718     386.336      93.996
  H      499.727     387.519      94.439
  H      499.439     387.293      96.888
  H      496.300     387.040      98.466
  H      496.955     384.352      97.733
  H      499.204     384.687      98.399
  H      498.132     386.247     100.800
  H      500.833     386.259      99.393
  H      500.330     387.393     100.661
  P      499.626     382.436      99.665
  C      497.528     380.896      99.387
  O      498.752     381.366      98.838
  O      500.529     381.928     100.741
  O      500.549     383.083      98.511
  H      501.431     382.669      98.584
  H      497.080     380.197      98.713
  H      496.864     381.722      99.538
  H      497.718     380.416     100.324

 6  7  8  9  10  11  12  13  14  15  16  26  31  32  33  34  35 0
 6-311+G(2d,p)
 ****
 36  37 0
 6-311+G(2d,p)
 ****
 1  2  3  4  5  17  18  19  20  21  22  23  24  25 0
 3-21G
 ****
 27  28  29  30  38  39  40  41  42  43  44  45 0
 3-21G
 ****


