%nproc=1
%NoSave
%Mem=1900MB
#P OB98/GEN NMR

erre ene a

0 1
  C     -126.319    -135.964     -43.172
  O     -127.559    -135.873     -43.848
  H     -125.894    -134.960     -43.085
  H     -125.620    -136.591     -43.734
  H     -126.462    -136.373     -42.168
  P     -128.351    -137.226     -44.176
  C     -126.511    -137.656     -45.943
  O     -127.302    -138.202     -44.893
  C     -125.327    -138.570     -46.257
  O     -124.397    -138.579     -45.155
  C     -125.709    -140.028     -46.489
  O     -126.298    -140.191     -47.764
  C     -124.360    -140.702     -46.301
  O     -123.541    -140.553     -47.471
  C     -123.777    -139.887     -45.120
  N     -123.978    -140.521     -43.819
  C     -122.843    -140.622     -43.003
  O     -121.754    -140.203     -43.399
  N     -122.977    -141.212     -41.769
  C     -124.138    -141.622     -41.367
  N     -124.202    -142.193     -40.132
  C     -125.362    -141.505     -42.182
  C     -125.210    -140.961     -43.388
  O     -129.651    -137.070     -44.906
  O     -128.559    -137.909     -42.741
  H     -122.659    -140.902     -47.232
  H     -129.428    -137.665     -42.369
  H     -126.313    -141.852     -41.801
  H     -126.061    -140.836     -44.051
  H     -122.698    -139.729     -45.258
  H     -124.455    -141.773     -46.111
  H     -126.384    -140.375     -45.697
  H     -124.802    -138.154     -47.128
  H     -123.338    -142.235     -39.603
  H     -126.153    -136.677     -45.602
  H     -125.069    -142.399     -39.655
  H     -127.117    -137.504     -46.844
  P     -127.535    -141.186     -47.996
  C     -125.762    -142.981     -48.491
  O     -126.950    -142.667     -47.782
  O     -128.280    -140.983     -49.272
  O     -128.437    -140.978     -46.690
  H     -128.951    -140.134     -46.758
  H     -125.470    -143.987     -48.271
  H     -124.982    -142.311     -48.195
  H     -125.937    -142.882     -49.542

 6  7  8  9  10  11  12  13  14  15  16  26  30  31  32  33  35 0
 6-311+G(2d,p)
 ****
 37  38 0
 6-311+G(2d,p)
 ****
 1  2  3  4  5  17  18  19  20  21  22  23  24  25 0
 3-21G
 ****
 27  28  29  34  36  39  40  41  42  43  44  45  46 0
 3-21G
 ****


