%nproc=1
%NoSave
%Mem=1900MB
#P OB98/GEN NMR

erre ene a

0 1
  C       25.527    -420.418    -169.324
  O       26.126    -421.653    -169.672
  H       24.543    -420.364    -169.795
  H       26.138    -419.583    -169.683
  H       25.408    -420.354    -168.240
  P       27.605    -421.914    -169.107
  C       28.600    -420.827    -171.221
  O       28.523    -422.002    -170.425
  C       29.684    -420.975    -172.290
  O       30.981    -420.921    -171.642
  C       29.606    -422.293    -173.062
  O       29.937    -422.057    -174.428
  C       30.682    -423.149    -172.417
  O       31.175    -424.157    -173.297
  C       31.715    -422.098    -172.016
  N       34.936    -425.760    -170.509
  C       34.378    -425.486    -171.707
  N       33.536    -424.475    -172.027
  C       33.332    -423.675    -170.963
  C       33.832    -423.828    -169.682
  C       34.664    -424.938    -169.466
  N       35.222    -425.239    -168.242
  N       33.352    -422.827    -168.854
  C       32.590    -422.076    -169.629
  N       32.536    -422.559    -170.908
  O       27.746    -423.057    -168.158
  O       27.989    -420.477    -168.514
  H       30.453    -424.795    -173.470
  H       27.727    -419.759    -169.124
  H       34.626    -426.167    -172.513
  H       32.055    -421.189    -169.312
  H       32.397    -421.840    -172.839
  H       30.269    -423.649    -171.528
  H       28.621    -422.756    -172.994
  H       29.635    -420.111    -172.966
  H       28.824    -419.956    -170.592
  H       35.821    -426.046    -168.179
  H       35.047    -424.627    -167.456
  H       27.626    -420.673    -171.692
  P       28.760    -421.667    -175.444
  C       28.955    -423.894    -176.742
  O       28.983    -422.466    -176.817
  O       28.482    -420.208    -175.588
  O       27.495    -422.425    -174.815
  H       26.706    -421.865    -174.923
  H       29.115    -424.306    -177.717
  H       28.003    -424.213    -176.372
  H       29.726    -424.232    -176.081

 6  7  8  9  10  11  12  13  14  15  25  28  32  33  34  35 0
 6-311+G(2d,p)
 ****
 36  39  40 0
 6-311+G(2d,p)
 ****
 1  2  3  4  5  16  17  18  19  20  21  22  23  24 0
 3-21G
 ****
 26  27  29  30  31  37  38  41  42  43  44  45  46  47 0
 3-21G
 ****
 48 0
 3-21G
 ****


