%nproc=1
%NoSave
%Mem=1900MB
#P OB98/GEN NMR

erre ene a

0 1
  C      -21.544     334.598    -286.856
  O      -22.851     334.014    -286.978
  P      -22.958     332.423    -286.747
  C      -24.783     332.690    -284.930
  O      -24.423     332.097    -286.171
  C      -26.185     332.233    -284.491
  O      -27.217     332.909    -285.269
  C      -26.424     330.726    -284.632
  O      -27.287     330.317    -283.566
  C      -27.178     330.629    -285.943
  O      -27.880     329.399    -286.056
  C      -28.050     331.879    -285.853
  N      -30.962     330.524    -289.824
  C      -30.659     329.897    -288.668
  N      -29.857     330.319    -287.665
  C      -29.374     331.548    -287.934
  C      -29.587     332.305    -289.074
  C      -30.421     331.747    -290.065
  N      -30.706     332.371    -291.247
  N      -28.875     333.494    -289.008
  C      -28.250     333.444    -287.847
  N      -28.545     332.303    -287.152
  O      -21.986     332.169    -285.504
  O      -22.546     331.617    -287.936
  H      -28.738     329.477    -285.587
  H      -21.177     331.716    -285.795
  H      -31.126     328.919    -288.531
  H      -27.575     334.200    -287.470
  H      -28.926     331.730    -285.208
  H      -26.472     330.701    -286.790
  H      -25.505     330.126    -284.632
  H      -26.320     332.532    -283.433
  H      -24.779     333.789    -285.024
  H      -31.295     331.891    -291.915
  H      -30.270     333.260    -291.454
  H      -24.031     332.450    -284.176
  P      -26.675     329.267    -282.516
  C      -27.787     330.112    -280.328
  O      -27.761     329.130    -281.344
  O      -25.472     330.072    -281.831
  O      -26.220     327.983    -283.135
  H      -24.799     329.449    -281.498
  H      -28.826     330.341    -280.087
  H      -27.282     331.041    -280.634
  H      -27.287     329.717    -279.439
  H      -21.606     335.652    -287.031
  H      -20.887     334.155    -287.575
  H      -21.165     334.422    -285.871

 3  4  5  6  7  8  9  10  11  12  22  25  29  30  31  32 0
 6-311+G(2d,p)
 ****
 33  36  37 0
 6-311+G(2d,p)
 ****
 1  2  13  14  15  16  17  18  19  20  21  23  24  26 0
 3-21G
 ****
 27  28  34  35  38  39  40  41  42  43  44  45  46  47  48 0
 3-21G
 ****


