%nproc=1
%NoSave
%Mem=1900MB
#P OB98/GEN NMR

erre ene a

0 1
  C      -32.975    -277.637     295.525
  O      -34.286    -277.579     296.060
  H      -32.265    -277.752     296.349
  H      -32.735    -276.716     294.985
  H      -32.877    -278.493     294.854
  P      -35.499    -277.257     295.061
  C      -36.728    -279.526     294.849
  O      -35.783    -278.626     294.277
  C      -36.258    -280.964     294.662
  O      -35.042    -281.194     295.404
  C      -37.257    -281.995     295.174
  O      -38.342    -282.138     294.278
  C      -36.363    -283.212     295.324
  O      -36.147    -283.857     294.065
  C      -35.058    -282.573     295.847
  N      -34.928    -282.652     297.303
  C      -34.183    -283.732     297.790
  O      -33.673    -284.542     297.018
  N      -34.057    -283.874     299.154
  C      -34.609    -283.012     299.948
  N      -34.443    -283.211     301.284
  C      -35.390    -281.854     299.471
  C      -35.514    -281.740     298.150
  O      -35.343    -276.059     294.174
  O      -36.764    -277.124     296.035
  H      -37.032    -284.135     293.751
  H      -36.868    -276.203     296.333
  H      -35.826    -281.155     300.174
  H      -36.072    -280.917     297.718
  H      -34.181    -283.062     295.396
  H      -36.797    -283.945     296.000
  H      -37.613    -281.707     296.172
  H      -36.037    -281.126     293.598
  H      -33.909    -284.024     301.565
  H      -37.680    -279.370     294.331
  H      -34.749    -282.559     301.993
  H      -36.872    -279.307     295.913
  P      -39.744    -281.415     294.569
  C      -39.815    -280.010     292.407
  O      -39.659    -279.994     293.825
  O      -40.147    -281.361     296.007
  O      -40.766    -282.238     293.650
  H      -40.964    -283.130     294.040
  H      -39.740    -279.012     292.029
  H      -40.774    -280.414     292.158
  H      -39.048    -280.616     291.971

 6  7  8  9  10  11  12  13  14  15  16  26  30  31  32  33  35 0
 6-311+G(2d,p)
 ****
 37  38 0
 6-311+G(2d,p)
 ****
 1  2  3  4  5  17  18  19  20  21  22  23  24  25 0
 3-21G
 ****
 27  28  29  34  36  39  40  41  42  43  44  45  46 0
 3-21G
 ****


