%nproc=1
%NoSave
%Mem=1900MB
#P OB98/GEN NMR

erre ene a

0 1
  C      496.490    -608.523     388.684
  O      497.006    -607.290     389.133
  P      497.104    -606.038     388.122
  C      498.693    -604.931     389.820
  O      498.459    -605.247     388.449
  C      500.062    -604.281     390.001
  O      501.113    -605.226     389.678
  C      500.297    -603.089     389.089
  O      499.578    -601.947     389.501
  C      501.820    -602.959     389.187
  O      502.193    -602.264     390.386
  C      502.256    -604.437     389.259
  N      502.798    -604.914     387.989
  C      503.630    -604.027     387.306
  O      503.805    -602.874     387.731
  N      504.240    -604.445     386.154
  C      503.948    -605.624     385.666
  N      504.618    -606.023     384.557
  C      502.950    -606.524     386.274
  C      502.439    -606.121     387.438
  O      495.881    -605.189     388.039
  O      497.424    -606.720     386.701
  H      496.798    -606.362     386.040
  H      503.137    -602.490     390.553
  H      502.686    -607.447     385.792
  H      501.715    -606.727     387.977
  H      503.016    -604.572     390.037
  H      502.249    -602.401     388.341
  H      500.031    -603.352     388.059
  H      500.169    -603.989     391.048
  H      505.314    -605.381     384.165
  H      498.639    -605.848     390.404
  H      504.723    -606.998     384.292
  H      497.895    -604.255     390.167
  P      499.240    -600.859     388.369
  C      501.053    -599.193     389.171
  O      500.569    -600.007     388.117
  O      498.263    -599.833     389.128
  O      498.600    -601.419     387.138
  H      497.578    -599.511     388.497
  H      502.107    -598.966     388.977
  H      500.969    -599.697     390.132
  H      500.491    -598.251     389.197
  H      496.503    -609.229     389.488
  H      497.091    -608.889     387.878
  H      495.484    -608.387     388.345

 3  4  5  6  7  8  9  10  11  12  13  24  27  28  29  30  32 0
 6-311+G(2d,p)
 ****
 34  35 0
 6-311+G(2d,p)
 ****
 1  2  14  15  16  17  18  19  20  21  22  23  25  26 0
 3-21G
 ****
 31  33  36  37  38  39  40  41  42  43  44  45  46 0
 3-21G
 ****


