%nproc=1
%NoSave
%Mem=1900MB
#P OB98/GEN NMR

erre ene a

0 1
  C     -535.368     162.363    -234.167
  O     -536.756     162.582    -234.349
  H     -534.852     162.610    -235.100
  H     -535.180     161.312    -233.926
  H     -534.990     163.007    -233.370
  P     -537.695     162.296    -233.080
  C     -537.173     164.793    -232.646
  O     -537.380     163.506    -232.076
  C     -536.846     165.813    -231.556
  O     -536.348     167.032    -232.136
  C     -538.036     166.213    -230.696
  O     -538.287     165.248    -229.694
  C     -537.528     167.522    -230.105
  O     -536.640     167.244    -229.002
  C     -536.736     168.134    -231.271
  N     -536.830     173.008    -232.885
  C     -536.065     172.383    -231.969
  N     -536.121     171.094    -231.560
  C     -537.099     170.437    -232.201
  C     -537.962     170.944    -233.161
  C     -537.792     172.292    -233.511
  N     -538.581     172.927    -234.453
  N     -538.838     169.970    -233.598
  C     -538.474     168.880    -232.948
  N     -537.448     169.116    -232.067
  O     -537.613     160.923    -232.509
  O     -539.128     162.703    -233.666
  H     -537.189     166.927    -228.258
  H     -539.056     163.486    -234.239
  H     -535.295     172.990    -231.502
  H     -538.903     167.897    -233.099
  H     -535.815     168.623    -230.924
  H     -538.339     168.143    -229.712
  H     -538.922     166.423    -231.309
  H     -536.041     165.394    -230.935
  H     -538.063     165.113    -233.201
  H     -538.506     173.933    -234.518
  H     -539.367     172.427    -234.825
  H     -536.334     164.711    -233.347
  P     -539.751     165.094    -229.049
  C     -540.296     163.063    -230.530
  O     -540.668     164.386    -230.159
  O     -540.319     166.350    -228.486
  O     -539.584     163.959    -227.937
  H     -540.124     164.175    -227.152
  H     -540.975     162.696    -231.271
  H     -540.331     162.428    -229.669
  H     -539.303     163.070    -230.928

 6  7  8  9  10  11  12  13  14  15  25  28  32  33  34  35 0
 6-311+G(2d,p)
 ****
 36  39  40 0
 6-311+G(2d,p)
 ****
 1  2  3  4  5  16  17  18  19  20  21  22  23  24 0
 3-21G
 ****
 26  27  29  30  31  37  38  41  42  43  44  45  46  47 0
 3-21G
 ****
 48 0
 3-21G
 ****


