%nproc=1
%NoSave
%Mem=1900MB
#P OB98/GEN NMR

erre ene a

0 1
  C      712.870     -79.250     287.578
  O      714.077     -78.735     287.058
  H      712.010     -78.777     287.092
  H      712.837     -80.328     287.387
  H      712.824     -79.083     288.659
  P      714.270     -77.145     287.150
  C      716.501     -77.423     285.850
  O      715.254     -76.739     285.944
  C      717.230     -77.009     284.579
  O      716.719     -77.747     283.443
  C      717.080     -75.536     284.203
  O      717.932     -74.697     284.968
  C      717.493     -75.578     282.738
  O      718.936     -75.582     282.642
  C      716.933     -76.923     282.267
  N      714.735     -76.008     277.706
  C      716.034     -76.059     278.092
  N      716.544     -76.291     279.322
  C      715.563     -76.518     280.210
  C      714.193     -76.515     279.968
  C      713.789     -76.236     278.644
  N      712.460     -76.181     278.268
  N      713.489     -76.804     281.109
  C      714.409     -76.981     282.038
  N      715.680     -76.816     281.543
  O      715.179     -76.950     288.454
  O      713.007     -76.350     287.235
  H      719.157     -75.836     281.730
  H      714.910     -76.129     288.910
  H      716.762     -75.877     277.305
  H      714.208     -77.240     283.071
  H      717.646     -77.458     281.631
  H      717.137     -74.712     282.164
  H      716.031     -75.215     284.275
  H      718.290     -77.271     284.697
  H      716.324     -78.500     285.829
  H      712.237     -76.178     277.285
  H      711.751     -76.361     278.978
  H      717.103     -77.176     286.730
  P      717.719     -73.110     284.846
  C      720.202     -72.568     285.351
  O      719.142     -72.515     284.407
  O      717.582     -72.641     286.378
  O      716.537     -72.695     284.032
  H      717.064     -71.813     286.427
  H      721.083     -72.138     284.922
  H      720.394     -73.587     285.615
  H      719.927     -72.019     286.227

 6  7  8  9  10  11  12  13  14  15  25  28  32  33  34  35 0
 6-311+G(2d,p)
 ****
 36  39  40 0
 6-311+G(2d,p)
 ****
 1  2  3  4  5  16  17  18  19  20  21  22  23  24 0
 3-21G
 ****
 26  27  29  30  31  37  38  41  42  43  44  45  46  47  48 0
 3-21G
 ****


