%nproc=1
%NoSave
%Mem=1900MB
#P OB98/GEN NMR

erre ene a

0 1
  C     -509.537    -242.616     100.178
  O     -510.845    -242.548      99.607
  P     -512.052    -243.052     100.541
  C     -512.153    -245.479      99.643
  O     -511.893    -244.635     100.752
  C     -511.862    -246.950      99.965
  O     -512.660    -247.405     101.094
  C     -512.149    -247.905      98.806
  O     -511.175    -248.960      98.876
  C     -513.513    -248.472      99.162
  O     -513.781    -249.682      98.465
  C     -513.344    -248.603     100.674
  N     -515.912    -251.546     103.885
  C     -514.682    -251.743     103.282
  N     -514.021    -252.857     103.629
  N     -514.153    -250.910     102.421
  C     -514.914    -249.807     102.207
  C     -516.138    -249.491     102.747
  C     -516.733    -250.435     103.673
  O     -517.811    -250.312     104.233
  N     -516.592    -248.270     102.295
  C     -515.659    -247.890     101.436
  N     -514.601    -248.757     101.389
  O     -513.332    -242.915      99.593
  O     -512.205    -242.256     101.796
  H     -512.951    -250.205      98.452
  H     -513.824    -242.105      99.804
  H     -516.279    -252.226     104.523
  H     -515.691    -246.987     100.852
  H     -512.725    -249.472     100.958
  H     -514.299    -247.748      98.916
  H     -514.346    -253.519     104.325
  H     -512.133    -247.439      97.811
  H     -513.090    -253.009     103.238
  H     -510.808    -247.027     100.256
  H     -511.540    -245.173      98.786
  H     -513.197    -245.340      99.330
  P     -509.738    -248.694      98.211
  C     -509.911    -249.442      95.732
  O     -509.983    -248.380      96.666
  O     -509.085    -250.158      98.192
  O     -508.877    -247.731      98.955
  H     -508.137    -250.094      98.401
  H     -510.531    -249.190      94.869
  H     -510.265    -250.384      96.173
  H     -508.874    -249.567      95.411
  H     -508.820    -242.257      99.470
  H     -509.311    -243.631     100.432
  H     -509.501    -242.011     101.060

 3  4  5  6  7  8  9  10  11  12  23  26  30  31 0
 6-311+G(2d,p)
 ****
 33  35  36  37  38 0
 6-311+G(2d,p)
 ****
 1  2  13  14  15  16  17  18  19  20  21  22  24  25 0
 3-21G
 ****
 27  28  29  32  34  39  40  41  42  43  44  45  46  47  48  49 0
 3-21G
 ****


