%nproc=1
%NoSave
%Mem=1900MB
#P OB98/GEN NMR

erre ene a

0 1
  C      240.624      20.402     304.801
  O      241.825      20.519     304.053
  P      241.685      20.684     302.462
  C      242.942      18.441     302.022
  O      241.756      19.210     301.836
  C      242.590      16.975     302.261
  O      241.562      16.873     303.271
  C      242.031      16.251     301.042
  O      243.061      15.929     300.119
  C      241.373      15.048     301.708
  O      242.367      14.065     302.043
  C      240.793      15.670     302.991
  N      235.985      14.144     303.874
  C      237.175      13.540     304.090
  N      238.414      14.003     303.805
  C      238.347      15.223     303.248
  C      237.207      15.950     302.952
  C      235.975      15.365     303.287
  N      234.763      15.980     303.063
  N      237.532      17.156     302.359
  C      238.849      17.158     302.316
  N      239.389      16.020     302.855
  O      243.086      21.332     302.041
  O      240.523      21.514     302.011
  H      242.998      14.022     301.296
  H      242.974      21.943     301.288
  H      237.130      12.558     304.551
  H      239.452      17.959     301.911
  H      240.886      15.007     303.858
  H      240.626      14.556     301.072
  H      241.269      16.865     300.544
  H      243.486      16.464     302.631
  H      243.490      18.822     302.891
  H      233.925      15.431     303.197
  H      234.755      16.822     302.502
  H      243.575      18.554     301.137
  P      242.999      16.626     298.672
  C      242.704      14.327     297.553
  O      242.123      15.601     297.797
  O      244.482      16.374     298.129
  O      242.535      18.040     298.675
  H      244.760      15.447     298.245
  H      241.986      13.721     296.997
  H      242.934      13.831     298.501
  H      243.611      14.440     296.956
  H      240.859      20.299     305.840
  H      240.081      19.541     304.471
  H      240.027      21.278     304.656

 3  4  5  6  7  8  9  10  11  12  22  25  29  30  31  32 0
 6-311+G(2d,p)
 ****
 33  36  37 0
 6-311+G(2d,p)
 ****
 1  2  13  14  15  16  17  18  19  20  21  23  24  26 0
 3-21G
 ****
 27  28  34  35  38  39  40  41  42  43  44  45  46  47  48 0
 3-21G
 ****


