%nproc=1
%NoSave
%Mem=1900MB
#P OB98/GEN NMR

erre ene a

0 1
  C      268.431    -248.231    -471.698
  O      268.873    -247.144    -472.517
  P      267.937    -245.839    -472.593
  C      269.977    -244.223    -472.913
  O      268.765    -244.750    -473.435
  C      270.786    -243.529    -474.024
  O      271.448    -244.538    -474.851
  C      269.954    -242.632    -474.954
  O      270.781    -241.493    -475.272
  C      269.759    -243.509    -476.170
  O      269.465    -242.738    -477.343
  C      271.105    -244.249    -476.219
  N      271.058    -245.470    -477.027
  C      271.425    -245.349    -478.364
  O      271.699    -244.261    -478.904
  N      271.420    -246.508    -479.097
  C      271.011    -247.729    -478.653
  O      271.025    -248.738    -479.351
  C      270.535    -247.774    -477.264
  C      270.552    -246.663    -476.532
  O      268.013    -245.317    -471.082
  O      266.560    -246.138    -473.095
  H      268.889    -245.436    -470.666
  H      269.329    -243.361    -478.094
  H      271.711    -246.447    -480.068
  H      270.128    -248.714    -476.894
  H      270.184    -246.642    -475.512
  H      271.884    -243.596    -476.626
  H      268.938    -244.218    -476.004
  H      269.016    -242.303    -474.497
  H      271.580    -242.937    -473.525
  H      270.586    -245.031    -472.485
  H      269.750    -243.538    -472.092
  P      270.330    -240.062    -474.687
  C      272.697    -239.625    -473.666
  O      271.665    -239.202    -474.523
  O      269.964    -240.467    -473.180
  O      269.194    -239.419    -475.414
  H      270.644    -241.025    -472.760
  H      273.593    -239.042    -473.864
  H      272.934    -240.687    -473.805
  H      272.403    -239.463    -472.618
  H      269.147    -249.025    -471.742
  H      267.485    -248.583    -472.053
  H      268.331    -247.897    -470.686

 3  4  5  6  7  8  9  10  11  12  13  24  28  29  30  31  32 0
 6-311+G(2d,p)
 ****
 33  34 0
 6-311+G(2d,p)
 ****
 1  2  14  15  16  17  18  19  20  21  22  23  25  26  27 0
 3-21G
 ****
 35  36  37  38  39  40  41  42  43  44  45 0
 3-21G
 ****


