%nproc=1
%NoSave
%Mem=1900MB
#P OB98/GEN NMR

erre ene a

0 1
  C     -358.870     496.444     789.852
  O     -358.687     496.693     791.255
  P     -358.363     495.516     792.292
  C     -358.015     497.239     794.182
  O     -358.674     496.047     793.785
  C     -358.917     498.130     795.043
  O     -360.020     498.636     794.255
  C     -359.538     497.436     796.240
  O     -358.596     497.324     797.292
  C     -360.729     498.337     796.544
  O     -360.316     499.494     797.282
  C     -361.174     498.748     795.131
  N     -366.189     497.807     795.490
  C     -365.392     498.696     796.108
  N     -364.060     498.886     795.956
  C     -363.560     498.039     795.043
  C     -364.257     497.065     794.331
  C     -365.637     496.952     794.588
  N     -366.440     496.031     793.971
  N     -363.399     496.366     793.505
  C     -362.215     496.930     793.691
  N     -362.265     497.940     794.608
  O     -357.004     494.912     792.130
  O     -359.497     494.420     792.046
  H     -361.102     500.045     797.452
  H     -359.159     493.534     792.275
  H     -365.888     499.351     796.821
  H     -361.304     496.632     793.187
  H     -361.492     499.792     795.084
  H     -361.511     497.839     797.122
  H     -359.902     496.441     795.954
  H     -358.325     499.002     795.360
  H     -357.709     497.788     793.278
  H     -367.414     495.992     794.228
  H     -366.018     495.366     793.328
  H     -357.109     496.980     794.742
  P     -357.930     495.908     797.648
  C     -355.925     497.330     798.383
  O     -356.709     496.186     798.644
  O     -357.590     495.049     796.468
  O     -359.009     495.193     798.589
  H     -358.959     494.233     798.463
  H     -355.206     497.100     797.589
  H     -355.367     497.591     799.300
  H     -356.548     498.185     798.094
  H     -359.076     497.366     789.350
  H     -359.691     495.772     789.713
  H     -357.980     496.009     789.448

 3  4  5  6  7  8  9  10  11  12  22  25  29  30  31  32 0
 6-311+G(2d,p)
 ****
 33  36  37 0
 6-311+G(2d,p)
 ****
 1  2  13  14  15  16  17  18  19  20  21  23  24  26 0
 3-21G
 ****
 27  28  34  35  38  39  40  41  42  43  44  45  46  47  48 0
 3-21G
 ****


