%nproc=1
%NoSave
%Mem=1900MB
#P OB98/GEN NMR

erre ene a

0 1
  C     -248.581     483.304    -168.089
  O     -249.491     483.188    -167.009
  H     -247.594     483.592    -167.719
  H     -248.505     482.333    -168.585
  H     -248.942     484.044    -168.810
  P     -249.768     484.522    -166.161
  C     -248.277     486.169    -164.817
  O     -248.372     484.913    -165.470
  C     -247.822     485.980    -163.373
  O     -248.871     485.366    -162.599
  C     -246.604     485.080    -163.206
  O     -245.393     485.766    -163.478
  C     -246.716     484.726    -161.724
  O     -246.225     485.816    -160.924
  C     -248.235     484.587    -161.547
  N     -250.555     480.777    -159.029
  C     -250.294     482.063    -158.688
  N     -249.698     483.024    -159.423
  C     -249.356     482.547    -160.632
  C     -249.571     481.275    -161.134
  C     -250.196     480.359    -160.266
  N     -250.388     479.030    -160.607
  N     -249.068     481.165    -162.420
  C     -248.547     482.345    -162.679
  N     -248.703     483.214    -161.636
  O     -250.662     483.987    -164.943
  O     -250.449     485.622    -166.907
  H     -246.683     486.621    -161.234
  H     -251.604     484.145    -165.145
  H     -250.616     482.354    -157.695
  H     -248.048     482.606    -163.601
  H     -248.579     484.992    -160.589
  H     -246.143     483.832    -161.453
  H     -246.696     484.165    -163.804
  H     -247.633     486.977    -162.947
  H     -249.258     486.659    -164.825
  H     -250.392     478.404    -159.802
  H     -249.870     478.721    -161.419
  H     -247.564     486.797    -165.362
  P     -244.303     485.034    -164.398
  C     -242.220     483.615    -163.811
  O     -243.544     483.983    -163.447
  O     -243.211     486.175    -164.645
  O     -244.822     484.486    -165.684
  H     -243.082     486.304    -165.608
  H     -241.836     482.915    -163.098
  H     -241.599     484.486    -163.826
  H     -242.229     483.166    -164.782

 6  7  8  9  10  11  12  13  14  15  25  28  32  33  34  35 0
 6-311+G(2d,p)
 ****
 36  39  40 0
 6-311+G(2d,p)
 ****
 1  2  3  4  5  16  17  18  19  20  21  22  23  24 0
 3-21G
 ****
 26  27  29  30  31  37  38  41  42  43  44  45  46  47  48 0
 3-21G
 ****


