%nproc=1
%NoSave
%Mem=1900MB
#P OB98/GEN NMR

erre ene a

0 1
  C      -71.271     -87.225     136.671
  O      -70.347     -88.130     137.240
  H      -72.277     -87.635     136.786
  H      -71.068     -87.086     135.607
  H      -71.225     -86.262     137.188
  P      -68.784     -87.814     137.099
  C      -68.238     -87.822     139.627
  O      -68.347     -87.052     138.440
  C      -66.873     -87.609     140.293
  O      -66.743     -86.206     140.659
  C      -66.673     -88.435     141.575
  O      -65.272     -88.712     141.690
  C      -67.113     -87.448     142.637
  O      -66.713     -87.858     143.921
  C      -66.507     -86.155     142.083
  N      -67.078     -84.963     142.689
  C      -66.663     -84.674     143.992
  O      -65.867     -85.415     144.569
  N      -67.182     -83.571     144.619
  C      -68.088     -82.859     144.025
  N      -68.573     -81.788     144.707
  C      -68.597     -83.165     142.672
  C      -68.050     -84.218     142.066
  O      -68.368     -87.143     135.833
  O      -68.085     -89.247     137.255
  H      -66.860     -87.142     144.580
  H      -67.784     -89.562     136.382
  H      -69.366     -82.552     142.228
  H      -68.360     -84.522     141.071
  H      -65.420     -86.137     142.235
  H      -68.204     -87.370     142.661
  H      -67.244     -89.366     141.576
  H      -66.086     -87.820     139.559
  H      -68.204     -81.622     145.635
  H      -68.357     -88.873     139.349
  H      -69.293     -81.175     144.355
  H      -69.034     -87.551     140.327
  P      -64.677     -90.201     141.711
  C      -63.620     -89.948     139.372
  O      -64.483     -90.715     140.207
  O      -65.439     -91.146     142.584
  O      -63.175     -90.040     142.246
  H      -62.923     -90.845     142.736
  H      -63.576     -90.393     138.400
  H      -62.639     -89.925     139.799
  H      -63.997     -88.950     139.290

 6  7  8  9  10  11  12  13  14  15  16  26  30  31  32  33  35 0
 6-311+G(2d,p)
 ****
 37  38 0
 6-311+G(2d,p)
 ****
 1  2  3  4  5  17  18  19  20  21  22  23  24  25 0
 3-21G
 ****
 27  28  29  34  36  39  40  41  42  43  44  45  46 0
 3-21G
 ****


