%nproc=1
%NoSave
%Mem=1900MB
#P OB98/GEN NMR

erre ene a

0 1
  C      173.211     102.041      60.330
  O      173.044     101.991      61.733
  H      172.287     101.704      59.854
  H      174.024     101.372      60.034
  H      173.428     103.061      60.000
  P      174.147     102.748      62.621
  C      174.812     105.229      62.996
  O      174.066     104.301      62.223
  C      175.538     106.215      62.085
  O      176.552     105.535      61.314
  C      174.635     106.921      61.078
  O      173.986     108.046      61.656
  C      175.657     107.355      60.040
  O      176.374     108.514      60.520
  C      176.597     106.143      59.992
  N      178.316     103.201      56.236
  C      178.975     104.156      56.986
  N      180.276     104.361      56.685
  N      178.412     104.851      57.940
  C      177.101     104.556      58.112
  C      176.338     103.636      57.428
  C      176.977     102.864      56.388
  O      176.440     101.998      55.702
  N      175.045     103.617      57.883
  C      175.022     104.539      58.824
  N      176.244     105.141      59.000
  O      175.525     102.257      61.965
  O      174.103     102.447      64.081
  H      176.920     108.221      61.271
  H      175.918     101.570      62.536
  H      178.794     102.701      55.506
  H      174.153     104.803      59.411
  H      177.635     106.431      59.797
  H      175.198     107.637      59.090
  H      180.766     103.878      55.950
  H      173.918     106.229      60.620
  H      180.779     105.056      57.225
  H      176.050     106.947      62.723
  H      175.546     104.682      63.598
  H      174.130     105.768      63.661
  P      172.620     108.560      60.989
  C      170.247     107.535      60.780
  O      171.643     107.289      60.885
  O      173.051     108.826      59.472
  O      172.029     109.779      61.610
  H      173.033     109.786      59.284
  H      169.724     106.603      60.719
  H      170.052     108.112      59.900
  H      169.914     108.075      61.642

 6  7  8  9  10  11  12  13  14  15  26  29  33  34 0
 6-311+G(2d,p)
 ****
 36  38  39  40  41 0
 6-311+G(2d,p)
 ****
 1  2  3  4  5  16  17  18  19  20  21  22  23  24  25 0
 3-21G
 ****
 27  28  30  31  32  35  37  42  43  44  45  46  47 0
 3-21G
 ****
 48  49 0
 3-21G
 ****


