%nproc=1
%NoSave
%Mem=1900MB
#P OB98/GEN NMR

erre ene a

0 1
  C     -267.971     -74.742     887.252
  O     -266.588     -74.865     887.654
  P     -265.688     -76.117     887.214
  C     -263.622     -74.678     887.805
  O     -264.230     -75.962     887.896
  C     -262.205     -74.682     888.398
  O     -262.262     -74.461     889.828
  C     -261.437     -75.970     888.203
  O     -260.918     -76.044     886.883
  C     -260.375     -75.877     889.299
  O     -259.295     -75.035     888.888
  C     -261.170     -75.209     890.433
  N     -260.006     -79.087     893.568
  C     -259.250     -78.316     892.756
  N     -259.636     -77.300     891.951
  C     -260.961     -77.094     892.050
  C     -261.859     -77.799     892.836
  C     -261.351     -78.851     893.624
  N     -262.119     -79.642     894.432
  N     -263.148     -77.323     892.651
  C     -263.013     -76.315     891.802
  N     -261.708     -76.146     891.413
  O     -265.649     -76.361     885.738
  O     -266.319     -77.368     887.979
  H     -258.722     -75.538     888.292
  H     -266.154     -78.186     887.463
  H     -258.189     -78.549     892.746
  H     -263.823     -75.703     891.429
  H     -260.566     -74.482     890.985
  H     -259.953     -76.847     889.570
  H     -262.087     -76.832     888.400
  H     -261.665     -73.827     887.962
  H     -264.245     -73.954     888.345
  H     -261.680     -80.389     894.943
  H     -263.126     -79.491     894.432
  H     -263.579     -74.379     886.761
  P     -261.778     -76.713     885.701
  C     -261.369     -75.161     883.698
  O     -261.033     -76.383     884.324
  O     -263.246     -76.384     885.717
  O     -261.539     -78.291     885.879
  H     -262.328     -78.766     885.587
  H     -262.304     -75.290     883.149
  H     -260.564     -74.904     882.975
  H     -261.462     -74.357     884.417
  H     -268.380     -73.838     887.653
  H     -268.526     -75.579     887.622
  H     -268.031     -74.718     886.184

 3  4  5  6  7  8  9  10  11  12  22  25  29  30  31  32 0
 6-311+G(2d,p)
 ****
 33  36  37 0
 6-311+G(2d,p)
 ****
 1  2  13  14  15  16  17  18  19  20  21  23  24  26 0
 3-21G
 ****
 27  28  34  35  38  39  40  41  42  43  44  45  46  47  48 0
 3-21G
 ****


