%nproc=1
%NoSave
%Mem=1900MB
#P OB98/GEN NMR

erre ene a

0 1
  C     -196.621     -93.877    -219.989
  O     -195.305     -93.628    -219.484
  P     -194.193     -94.773    -219.340
  C     -192.044     -94.054    -220.571
  O     -193.269     -94.780    -220.647
  C     -192.223     -92.600    -221.018
  O     -193.141     -91.910    -220.152
  C     -190.946     -91.766    -221.005
  O     -190.118     -92.080    -222.112
  C     -191.520     -90.353    -221.020
  O     -191.870     -89.948    -222.355
  C     -192.786     -90.513    -220.150
  N     -192.597     -90.009    -218.796
  C     -192.768     -88.633    -218.613
  O     -193.005     -87.899    -219.576
  N     -192.642     -88.118    -217.346
  C     -192.299     -88.895    -216.366
  N     -192.193     -88.331    -215.131
  C     -192.024     -90.334    -216.532
  C     -192.193     -90.820    -217.762
  O     -194.749     -96.116    -218.980
  O     -193.208     -94.253    -218.189
  H     -192.325     -89.089    -222.273
  H     -192.839     -95.023    -217.714
  H     -191.712     -90.942    -215.697
  H     -192.020     -91.865    -217.974
  H     -193.633     -89.985    -220.605
  H     -190.818     -89.611    -220.633
  H     -190.406     -91.930    -220.066
  H     -192.662     -92.612    -222.028
  H     -192.399     -87.344    -215.051
  H     -191.312     -94.546    -221.225
  H     -191.940     -88.849    -214.303
  H     -191.676     -94.091    -219.542
  P     -188.777     -92.923    -221.884
  C     -189.400     -95.134    -223.031
  O     -189.181     -94.468    -221.801
  O     -187.887     -92.439    -220.785
  O     -188.031     -92.834    -223.304
  H     -187.067     -92.854    -223.154
  H     -189.271     -96.206    -222.883
  H     -188.696     -94.788    -223.796
  H     -190.424     -94.940    -223.368
  H     -197.181     -92.965    -219.991
  H     -197.112     -94.595    -219.366
  H     -196.554     -94.257    -220.987

 3  4  5  6  7  8  9  10  11  12  13  23  27  28  29  30  32 0
 6-311+G(2d,p)
 ****
 34  35 0
 6-311+G(2d,p)
 ****
 1  2  14  15  16  17  18  19  20  21  22  24  25  26 0
 3-21G
 ****
 31  33  36  37  38  39  40  41  42  43  44  45  46 0
 3-21G
 ****


