%nproc=1
%NoSave
%Mem=1900MB
#P OB98/GEN NMR

erre ene a

0 1
  C        7.363     134.800    -200.170
  O        7.868     136.122    -200.263
  P        9.299     136.421    -199.597
  C        8.361     138.809    -199.157
  O        9.095     137.702    -198.651
  C        8.575     140.033    -198.269
  O        8.017     139.817    -196.958
  C       10.038     140.383    -198.030
  O       10.604     141.109    -199.108
  C        9.930     141.261    -196.796
  O        9.534     142.595    -197.173
  C        8.808     140.574    -196.007
  N        9.840     140.136    -191.074
  C        9.151     141.126    -191.747
  N        8.731     142.173    -191.008
  N        8.895     141.089    -193.030
  C        9.385     139.982    -193.641
  C       10.078     138.935    -193.081
  C       10.366     138.993    -191.664
  O       11.016     138.176    -191.022
  N       10.400     137.991    -194.018
  C        9.903     138.458    -195.144
  N        9.316     139.687    -194.975
  O       10.160     136.998    -200.815
  O        9.947     135.241    -198.957
  H        8.634     142.525    -197.545
  H       11.111     136.961    -200.598
  H       10.017     140.212    -190.086
  H        9.960     137.958    -196.103
  H        8.140     141.298    -195.530
  H       10.877     141.354    -196.254
  H        8.950     142.292    -190.029
  H       10.625     139.487    -197.788
  H        8.278     142.943    -191.488
  H        8.047     140.880    -198.726
  H        7.299     138.554    -199.180
  H        8.687     139.021    -200.181
  P       11.358     140.252    -200.237
  C       12.692     142.395    -200.855
  O       12.735     141.027    -200.507
  O       10.492     140.543    -201.550
  O       11.467     138.795    -199.939
  H       10.571     139.802    -202.183
  H       13.695     142.819    -200.738
  H       12.004     142.944    -200.207
  H       12.381     142.503    -201.898
  H        6.410     134.748    -200.653
  H        7.256     134.531    -199.140
  H        8.042     134.124    -200.647

 3  4  5  6  7  8  9  10  11  12  23  26  30  31 0
 6-311+G(2d,p)
 ****
 33  35  36  37  38 0
 6-311+G(2d,p)
 ****
 1  2  13  14  15  16  17  18  19  20  21  22  24  25 0
 3-21G
 ****
 27  28  29  32  34  39  40  41  42  43  44  45  46  47  48  49 0
 3-21G
 ****


