%nproc=1
%NoSave
%Mem=1900MB
#P OB98/GEN NMR

erre ene a

0 1
  C      -55.235     -27.586     -43.938
  O      -54.058     -27.883     -43.212
  H      -55.137     -26.585     -44.368
  H      -56.111     -27.603     -43.286
  H      -55.362     -28.305     -44.752
  P      -54.063     -29.174     -42.258
  C      -54.274     -31.715     -42.645
  O      -54.379     -30.419     -43.227
  C      -55.153     -32.726     -43.382
  O      -56.549     -32.386     -43.240
  C      -54.916     -32.781     -44.882
  O      -53.654     -33.279     -45.263
  C      -56.172     -33.483     -45.372
  O      -56.086     -34.902     -45.247
  C      -57.236     -32.928     -44.391
  N      -58.104     -31.937     -45.018
  C      -58.913     -32.401     -46.049
  O      -58.903     -33.565     -46.450
  N      -59.721     -31.467     -46.638
  C      -59.761     -30.138     -46.335
  O      -60.494     -29.346     -46.916
  C      -58.854     -29.698     -45.262
  C      -58.080     -30.605     -44.660
  O      -54.965     -29.091     -41.062
  O      -52.522     -29.386     -41.890
  H      -56.977     -35.258     -45.433
  H      -52.419     -29.995     -41.118
  H      -60.327     -31.786     -47.378
  H      -58.850     -28.649     -45.003
  H      -57.403     -30.305     -43.862
  H      -57.868     -33.744     -44.017
  H      -56.386     -33.262     -46.420
  H      -54.962     -31.755     -45.275
  H      -55.002     -33.707     -42.918
  H      -54.604     -31.642     -41.603
  H      -53.228     -32.040     -42.664
  P      -52.860     -32.789     -46.555
  C      -51.585     -30.604     -47.217
  O      -52.600     -31.212     -46.427
  O      -53.328     -33.321     -47.870
  O      -51.387     -33.395     -46.280
  H      -51.009     -33.636     -47.150
  H      -51.549     -29.556     -47.006
  H      -51.803     -30.752     -48.254
  H      -50.639     -31.047     -46.985

 6  7  8  9  10  11  12  13  14  15  16  26  31  32  33  34  35 0
 6-311+G(2d,p)
 ****
 36  37 0
 6-311+G(2d,p)
 ****
 1  2  3  4  5  17  18  19  20  21  22  23  24  25 0
 3-21G
 ****
 27  28  29  30  38  39  40  41  42  43  44  45 0
 3-21G
 ****


