%nproc=1
%NoSave
%Mem=1900MB
#P OB98/GEN NMR

erre ene a

0 1
  C        8.764    1002.670    -171.192
  O        9.344    1003.510    -172.168
  H        7.695    1002.578    -171.404
  H        8.879    1003.107    -170.195
  H        9.213    1001.679    -171.222
  P       10.905    1003.859    -172.074
  C       11.473    1002.056    -173.814
  O       11.670    1002.496    -172.473
  C       12.794    1002.045    -174.587
  O       13.233    1003.408    -174.823
  C       13.936    1001.318    -173.855
  O       14.606    1000.436    -174.758
  C       14.874    1002.442    -173.450
  O       16.216    1002.009    -173.260
  C       14.652    1003.431    -174.591
  N       15.153    1004.762    -174.277
  C       16.097    1005.297    -175.160
  O       16.457    1004.646    -176.151
  N       16.647    1006.518    -174.879
  C       16.324    1007.138    -173.781
  N       16.933    1008.330    -173.558
  C       15.351    1006.608    -172.814
  C       14.804    1005.424    -173.126
  O       11.333    1004.467    -170.782
  O       11.189    1004.802    -173.339
  H       16.225    1001.300    -172.573
  H       12.005    1005.328    -173.166
  H       15.114    1007.144    -171.910
  H       14.074    1004.952    -172.470
  H       15.154    1003.084    -175.518
  H       14.531    1002.885    -172.507
  H       13.595    1000.752    -172.991
  H       12.616    1001.613    -175.577
  H       17.601    1008.654    -174.239
  H       10.753    1002.719    -174.303
  H       16.772    1008.889    -172.729
  H       11.069    1001.035    -173.790
  P       14.987     998.989    -174.177
  C       12.704     997.786    -174.479
  O       13.654     998.323    -173.574
  O       15.879     999.333    -172.885
  O       15.736     998.132    -175.160
  H       16.812     999.076    -173.065
  H       11.879     997.382    -173.931
  H       13.161     997.011    -175.058
  H       12.355     998.560    -175.131

 6  7  8  9  10  11  12  13  14  15  16  26  30  31  32  33  35 0
 6-311+G(2d,p)
 ****
 37  38 0
 6-311+G(2d,p)
 ****
 1  2  3  4  5  17  18  19  20  21  22  23  24  25 0
 3-21G
 ****
 27  28  29  34  36  39  40  41  42  43  44  45  46 0
 3-21G
 ****


