%nproc=1
%NoSave
%Mem=1900MB
#P OB98/GEN NMR

erre ene a

0 1
  C       42.249     -68.964     250.953
  O       41.743     -68.111     251.991
  P       41.729     -66.517     251.755
  C       43.649     -66.215     253.517
  O       42.374     -65.808     253.049
  C       44.168     -65.235     254.573
  O       44.261     -63.896     254.025
  C       43.265     -65.092     255.793
  O       43.400     -66.196     256.681
  C       43.760     -63.781     256.387
  O       44.937     -63.988     257.188
  C       44.105     -62.970     255.118
  N       43.099     -61.956     254.816
  C       43.161     -60.782     255.573
  O       43.956     -60.613     256.494
  N       42.233     -59.821     255.248
  C       41.239     -59.938     254.321
  O       40.431     -59.047     254.097
  C       41.179     -61.232     253.610
  C       42.097     -62.154     253.891
  O       40.170     -66.174     251.932
  O       42.232     -66.051     250.434
  H       45.575     -64.474     256.638
  H       39.956     -65.375     251.408
  H       42.281     -58.957     255.769
  H       40.394     -61.368     252.884
  H       42.066     -63.117     253.376
  H       45.078     -62.475     255.241
  H       43.015     -63.302     257.031
  H       42.221     -64.975     255.475
  H       45.174     -65.554     254.875
  H       44.352     -66.235     252.674
  H       43.569     -67.225     253.934
  P       42.380     -67.419     256.462
  C       41.214     -66.877     258.743
  O       41.891     -67.824     257.929
  O       43.391     -68.585     256.026
  O       41.311     -67.126     255.466
  H       44.260     -68.501     256.465
  H       40.603     -66.206     258.146
  H       41.952     -66.309     259.315
  H       40.569     -67.423     259.442
  H       42.188     -69.985     251.268
  H       43.270     -68.714     250.752
  H       41.667     -68.829     250.065

 3  4  5  6  7  8  9  10  11  12  13  23  28  29  30  31  32 0
 6-311+G(2d,p)
 ****
 33  34 0
 6-311+G(2d,p)
 ****
 1  2  14  15  16  17  18  19  20  21  22  24  25  26 0
 3-21G
 ****
 27  35  36  37  38  39  40  41  42  43  44  45 0
 3-21G
 ****


