%nproc=1
%NoSave
%Mem=1900MB
#P OB98/GEN NMR

erre ene a

0 1
  C     -424.960      -2.786    -326.905
  O     -424.866      -3.055    -325.518
  P     -425.478      -2.029    -324.455
  C     -426.765      -3.707    -322.991
  O     -426.868      -2.624    -323.913
  C     -427.508      -4.927    -323.516
  O     -426.731      -5.605    -324.531
  C     -427.787      -5.989    -322.458
  O     -428.808      -5.597    -321.568
  C     -428.118      -7.194    -323.334
  O     -429.477      -7.130    -323.793
  C     -427.142      -6.994    -324.518
  N     -425.996      -7.890    -324.446
  C     -426.008      -8.982    -325.323
  O     -426.985      -9.191    -326.043
  N     -424.914      -9.806    -325.359
  C     -423.952      -9.640    -324.506
  N     -422.868     -10.450    -324.628
  C     -423.972      -8.594    -323.454
  C     -425.009      -7.751    -323.501
  O     -425.541      -0.606    -324.907
  O     -424.515      -2.176    -323.180
  H     -424.232      -1.282    -322.897
  H     -429.619      -6.220    -324.116
  H     -423.180      -8.540    -322.725
  H     -425.095      -6.943    -322.785
  H     -427.659      -7.162    -325.467
  H     -427.999      -8.142    -322.802
  H     -426.865      -6.192    -321.900
  H     -428.449      -4.590    -323.975
  H     -422.877     -11.143    -325.365
  H     -427.197      -3.390    -322.037
  H     -421.957     -10.204    -324.248
  H     -425.704      -3.942    -322.824
  P     -428.616      -5.997    -320.024
  C     -428.714      -3.557    -319.169
  O     -427.958      -4.743    -319.281
  O     -427.437      -7.083    -320.065
  O     -429.844      -6.550    -319.370
  H     -427.602      -7.770    -319.394
  H     -428.297      -2.944    -318.370
  H     -429.767      -3.766    -318.941
  H     -428.651      -2.993    -320.108
  H     -424.498      -3.579    -327.454
  H     -424.463      -1.864    -327.124
  H     -425.990      -2.711    -327.185

 3  4  5  6  7  8  9  10  11  12  13  24  27  28  29  30  32 0
 6-311+G(2d,p)
 ****
 34  35 0
 6-311+G(2d,p)
 ****
 1  2  14  15  16  17  18  19  20  21  22  23  25  26 0
 3-21G
 ****
 31  33  36  37  38  39  40  41  42  43  44  45  46 0
 3-21G
 ****


