%nproc=1
%NoSave
%Mem=1900MB
#P OB98/GEN NMR

erre ene a

0 1
  C     -106.902    -628.922     -11.204
  O     -106.703    -628.298     -12.455
  H     -106.625    -629.978     -11.258
  H     -106.267    -628.429     -10.461
  H     -107.948    -628.825     -10.893
  P     -107.554    -628.868     -13.691
  C     -107.718    -631.202     -14.822
  O     -106.960    -630.328     -13.993
  C     -107.132    -632.608     -14.752
  O     -106.930    -633.000     -13.376
  C     -108.018    -633.686     -15.362
  O     -107.898    -633.747     -16.776
  C     -107.436    -634.928     -14.710
  O     -106.202    -635.287     -15.358
  C     -107.160    -634.429     -13.281
  N     -108.952    -637.539      -9.635
  C     -107.827    -637.581     -10.376
  N     -107.426    -636.717     -11.333
  C     -108.323    -635.727     -11.490
  C     -109.520    -635.561     -10.810
  C     -109.823    -636.525      -9.832
  N     -110.980    -636.498      -9.083
  N     -110.195    -634.448     -11.274
  C     -109.399    -633.935     -12.191
  N     -108.262    -634.678     -12.365
  O     -107.036    -628.001     -14.933
  O     -109.036    -628.813     -13.538
  H     -105.688    -634.463     -15.453
  H     -107.692    -628.028     -15.657
  H     -107.164    -638.415     -10.183
  H     -109.601    -633.033     -12.756
  H     -106.264    -634.882     -12.845
  H     -108.092    -635.793     -14.772
  H     -109.065    -633.574     -15.052
  H     -106.146    -632.592     -15.240
  H     -107.677    -630.842     -15.853
  H     -111.190    -637.327      -8.548
  H     -111.700    -635.830      -9.329
  H     -108.757    -631.205     -14.484
  P     -109.054    -634.517     -17.582
  C     -109.905    -636.966     -17.378
  O     -108.792    -636.076     -17.342
  O     -108.632    -634.298     -19.109
  O     -110.439    -634.040     -17.295
  H     -109.421    -634.339     -19.694
  H     -109.568    -637.966     -17.201
  H     -110.374    -636.912     -18.338
  H     -110.609    -636.688     -16.622

 6  7  8  9  10  11  12  13  14  15  25  28  32  33  34  35 0
 6-311+G(2d,p)
 ****
 36  39  40 0
 6-311+G(2d,p)
 ****
 1  2  3  4  5  16  17  18  19  20  21  22  23  24 0
 3-21G
 ****
 26  27  29  30  31  37  38  41  42  43  44  45  46  47 0
 3-21G
 ****
 48 0
 3-21G
 ****


