%nproc=1
%NoSave
%Mem=1900MB
#P OB98/GEN NMR

erre ene a

0 1
  C     -659.033     390.274    -892.580
  O     -658.673     389.161    -893.380
  H     -659.578     389.918    -891.710
  H     -659.689     390.940    -893.160
  H     -658.144     390.818    -892.260
  P     -657.868     389.469    -894.730
  C     -656.442     387.309    -894.650
  O     -656.451     388.726    -894.590
  C     -655.031     386.786    -894.990
  O     -654.666     387.238    -896.330
  C     -653.952     387.286    -894.010
  O     -653.003     386.228    -893.810
  C     -653.277     388.404    -894.790
  O     -651.951     388.648    -894.340
  C     -653.373     387.848    -896.210
  N     -649.893     390.372    -898.840
  C     -649.748     389.331    -897.950
  N     -648.495     388.888    -897.690
  N     -650.756     388.774    -897.340
  C     -651.958     389.290    -897.690
  C     -652.229     390.316    -898.550
  C     -651.097     390.951    -899.210
  O     -651.151     391.883    -900.000
  N     -653.573     390.569    -898.640
  C     -654.125     389.702    -897.800
  N     -653.190     388.896    -897.210
  O     -657.484     391.015    -894.590
  O     -658.611     389.178    -896.000
  H     -651.618     389.452    -894.800
  H     -657.433     391.445    -895.470
  H     -649.076     390.775    -899.280
  H     -655.188     389.602    -897.590
  H     -652.612     387.084    -896.420
  H     -653.852     389.335    -894.700
  H     -647.679     389.251    -898.160
  H     -654.345     387.621    -893.050
  H     -648.377     388.123    -897.040
  H     -655.058     385.695    -895.030
  H     -657.143     386.982    -895.430
  H     -656.765     386.893    -893.690
  P     -653.078     385.428    -892.410
  C     -653.707     382.944    -892.900
  O     -654.168     384.248    -892.560
  O     -653.793     386.473    -891.440
  O     -651.750     385.004    -891.890
  H     -653.146     386.808    -890.800
  H     -654.541     382.276    -892.962
  H     -653.028     382.598    -892.148
  H     -653.206     382.978    -893.845

 6  7  8  9  10  11  12  13  14  15  26  29  33  34 0
 6-311+G(2d,p)
 ****
 36  38  39  40  41 0
 6-311+G(2d,p)
 ****
 1  2  3  4  5  16  17  18  19  20  21  22  23  24  25 0
 3-21G
 ****
 27  28  30  31  32  35  37  42  43  44  45  46  47 0
 3-21G
 ****
 48  49 0
 3-21G
 ****


