%nproc=1
%NoSave
%Mem=1900MB
#P OB98/GEN NMR

erre ene a

0 1
  C       63.799      44.624    -161.367
  O       63.487      44.479    -162.752
  P       64.206      43.309    -163.580
  C       66.381      42.977    -164.931
  O       65.641      43.836    -164.067
  C       67.227      43.801    -165.919
  O       66.358      44.325    -166.957
  C       67.929      45.017    -165.307
  O       69.229      44.843    -164.755
  C       68.097      45.912    -166.536
  O       69.272      45.518    -167.269
  C       66.852      45.618    -167.369
  N       65.389      50.358    -168.630
  C       66.482      49.633    -168.955
  N       66.798      48.378    -168.576
  C       65.837      47.861    -167.791
  C       64.667      48.479    -167.379
  C       64.454      49.793    -167.831
  N       63.344      50.535    -167.492
  N       63.930      47.638    -166.571
  C       64.654      46.539    -166.481
  N       65.809      46.619    -167.213
  O       63.376      42.645    -164.625
  O       64.602      42.267    -162.425
  H       69.235      44.546    -167.351
  H       64.492      41.358    -162.766
  H       67.202      50.130    -169.602
  H       64.382      45.665    -165.903
  H       67.074      45.556    -168.443
  H       68.232      46.963    -166.271
  H       67.281      45.515    -164.573
  H       67.966      43.141    -166.393
  H       65.692      42.334    -165.486
  H       63.292      51.486    -167.823
  H       62.668      50.150    -166.849
  H       66.988      42.321    -164.304
  P       69.447      44.639    -163.181
  C       69.894      46.319    -161.222
  O       69.469      46.115    -162.554
  O       70.612      43.789    -162.805
  O       68.028      44.069    -162.704
  H       67.300      44.710    -162.756
  H       70.040      47.391    -161.061
  H       70.835      45.800    -161.028
  H       69.122      45.961    -160.532
  H       63.242      45.442    -160.960
  H       64.846      44.814    -161.255
  H       63.542      43.724    -160.848

 3  4  5  6  7  8  9  10  11  12  22  25  29  30  31  32 0
 6-311+G(2d,p)
 ****
 33  36  37 0
 6-311+G(2d,p)
 ****
 1  2  13  14  15  16  17  18  19  20  21  23  24  26 0
 3-21G
 ****
 27  28  34  35  38  39  40  41  42  43  44  45  46  47  48 0
 3-21G
 ****


