%nproc=1
%NoSave
%Mem=1900MB
#P OB98/GEN NMR

erre ene a

0 1
  C      -92.202     -28.560     174.202
  O      -92.383     -27.171     173.918
  P      -93.279     -26.821     172.632
  C      -95.001     -24.926     172.213
  O      -93.738     -25.288     172.751
  C      -95.399     -23.520     172.668
  O      -95.536     -23.424     174.098
  C      -94.391     -22.450     172.272
  O      -94.567     -22.093     170.912
  C      -94.739     -21.324     173.237
  O      -95.835     -20.529     172.741
  C      -95.159     -22.084     174.506
  N      -93.811     -24.368     178.826
  C      -94.990     -24.453     178.110
  N      -95.932     -25.284     178.601
  N      -95.220     -23.784     177.010
  C      -94.187     -22.994     176.634
  C      -92.963     -22.847     177.244
  C      -92.721     -23.589     178.463
  O      -91.687     -23.566     179.120
  N      -92.148     -22.002     176.534
  C      -92.925     -21.543     175.570
  N      -94.151     -22.163     175.548
  O      -94.625     -27.650     172.885
  O      -92.637     -27.198     171.340
  H      -95.571     -20.111     171.902
  H      -94.683     -28.387     172.250
  H      -93.691     -24.897     179.672
  H      -92.643     -20.790     174.852
  H      -96.042     -21.630     174.971
  H      -93.901     -20.636     173.379
  H      -95.822     -25.829     179.442
  H      -93.370     -22.805     172.462
  H      -96.801     -25.366     178.087
  H      -96.375     -23.293     172.218
  H      -95.762     -25.644     172.527
  H      -94.947     -24.982     171.121
  P      -93.466     -22.587     169.859
  C      -93.433     -23.166     167.330
  O      -94.173     -22.667     168.426
  O      -93.240     -24.122     170.264
  O      -92.183     -21.825     169.900
  H      -92.285     -24.321     170.262
  H      -94.122     -23.638     166.625
  H      -92.687     -23.902     167.644
  H      -92.928     -22.335     166.829
  H      -91.592     -28.669     175.075
  H      -91.723     -29.035     173.371
  H      -93.155     -29.016     174.373

 3  4  5  6  7  8  9  10  11  12  23  26  30  31 0
 6-311+G(2d,p)
 ****
 33  35  36  37  38 0
 6-311+G(2d,p)
 ****
 1  2  13  14  15  16  17  18  19  20  21  22  24  25 0
 3-21G
 ****
 27  28  29  32  34  39  40  41  42  43  44  45  46  47  48  49 0
 3-21G
 ****


