%nproc=1
%NoSave
%Mem=1900MB
#P OB98/GEN NMR

erre ene a

0 1
  C       37.838     120.381      43.535
  O       37.302     121.271      44.499
  P       37.872     122.767      44.548
  C       37.617     124.869      43.045
  O       37.588     123.451      43.124
  C       38.574     125.334      41.946
  O       39.945     125.123      42.375
  C       38.393     124.591      40.620
  O       38.668     125.485      39.532
  C       39.496     123.553      40.642
  O       39.840     123.126      39.325
  C       40.598     124.325      41.368
  N       45.434     123.946      42.785
  C       44.699     125.071      42.468
  N       45.372     126.241      42.443
  N       43.419     125.050      42.204
  C       42.881     123.807      42.262
  C       43.502     122.621      42.580
  C       44.922     122.657      42.857
  O       45.635     121.694      43.117
  N       42.619     121.573      42.568
  C       41.473     122.111      42.201
  N       41.590     123.458      41.969
  O       39.458     122.544      44.548
  O       37.444     123.559      45.736
  H       39.005     122.893      38.876
  H       39.815     122.710      45.440
  H       46.422     124.012      42.969
  H       40.545     121.574      42.065
  H       41.120     125.012      40.689
  H       39.176     122.676      41.214
  H       46.370     126.314      42.570
  H       37.402     124.145      40.481
  H       44.867     127.074      42.169
  H       38.445     126.414      41.805
  H       37.949     125.272      44.002
  H       36.607     125.245      42.848
  P       37.916     125.164      38.149
  C       35.395     125.357      37.536
  O       36.363     125.041      38.515
  O       38.354     123.659      37.834
  O       38.253     126.101      37.038
  H       38.307     123.487      36.875
  H       34.815     124.458      37.310
  H       35.844     125.732      36.613
  H       34.723     126.122      37.935
  H       37.361     119.428      43.626
  H       38.890     120.270      43.698
  H       37.668     120.773      42.554

 3  4  5  6  7  8  9  10  11  12  23  26  30  31 0
 6-311+G(2d,p)
 ****
 33  35  36  37  38 0
 6-311+G(2d,p)
 ****
 1  2  13  14  15  16  17  18  19  20  21  22  24  25 0
 3-21G
 ****
 27  28  29  32  34  39  40  41  42  43  44  45  46  47  48  49 0
 3-21G
 ****


