%nproc=1
%NoSave
%Mem=1900MB
#P OB98/GEN NMR

erre ene a

0 1
  C      -76.785    -899.271      40.523
  O      -76.872    -898.011      39.857
  P      -78.314    -897.351      39.671
  C      -77.076    -895.301      38.561
  O      -78.154    -896.231      38.528
  C      -77.338    -894.171      37.565
  O      -78.656    -893.611      37.772
  C      -76.371    -893.001      37.657
  O      -75.113    -893.321      37.067
  C      -77.151    -891.921      36.958
  O      -77.015    -892.041      35.522
  C      -78.588    -892.211      37.384
  N      -79.071    -891.351      38.486
  C      -79.715    -890.171      38.102
  O      -79.868    -889.851      36.914
  N      -80.111    -889.361      39.112
  C      -79.923    -889.581      40.445
  O      -80.293    -888.811      41.334
  C      -79.213    -890.821      40.787
  C      -78.845    -891.641      39.811
  O      -78.432    -896.511      41.049
  O      -79.406    -898.341      39.471
  H      -77.551    -896.241      41.390
  H      -76.101    -891.811      35.291
  H      -80.597    -888.491      38.857
  H      -79.052    -891.041      41.847
  H      -78.313    -892.571      40.026
  H      -79.282    -892.121      36.528
  H      -76.807    -890.891      37.218
  H      -76.206    -892.731      38.707
  H      -77.301    -894.621      36.547
  H      -76.151    -895.811      38.297
  H      -76.993    -894.901      39.582
  P      -73.802    -892.711      37.822
  C      -72.529    -894.841      36.954
  O      -72.533    -893.421      37.139
  O      -73.916    -893.381      39.271
  O      -73.759    -891.211      37.846
  H      -74.200    -894.331      39.225
  H      -71.775    -895.071      36.189
  H      -73.510    -895.191      36.628
  H      -72.263    -895.331      37.910
  H      -75.762    -899.580      40.569
  H      -77.353    -900.000      39.984
  H      -77.175    -899.178      41.515

 3  4  5  6  7  8  9  10  11  12  13  24  28  29  30  31  32 0
 6-311+G(2d,p)
 ****
 33  34 0
 6-311+G(2d,p)
 ****
 1  2  14  15  16  17  18  19  20  21  22  23  25  26  27 0
 3-21G
 ****
 35  36  37  38  39  40  41  42  43  44  45 0
 3-21G
 ****


