%nproc=1
%NoSave
%Mem=1900MB
#P OB98/GEN NMR

erre ene a

0 1
  C       20.012     235.639    -208.103
  O       19.424     234.451    -207.602
  P       18.946     233.345    -208.668
  C       16.348     232.980    -208.881
  O       17.479     233.798    -209.135
  C       15.846     233.209    -207.451
  O       15.907     234.613    -207.128
  C       14.395     232.803    -207.219
  O       14.257     231.396    -207.091
  C       14.068     233.591    -205.955
  O       14.578     232.910    -204.797
  C       14.848     234.900    -206.188
  N       14.005     235.997    -206.663
  C       13.505     236.855    -205.686
  O       13.742     236.720    -204.486
  N       12.697     237.868    -206.135
  C       12.302     238.064    -207.428
  O       11.544     238.965    -207.772
  C       12.839     237.109    -208.411
  C       13.649     236.137    -207.988
  O       18.700     232.096    -207.700
  O       19.937     233.119    -209.759
  H       18.471     232.378    -206.795
  H       13.925     232.217    -204.575
  H       12.343     238.516    -205.449
  H       12.538     237.230    -209.443
  H       14.043     235.419    -208.699
  H       15.339     235.219    -205.262
  H       12.991     233.725    -205.808
  H       13.770     233.159    -208.047
  H       16.512     232.672    -206.765
  H       16.629     231.933    -209.007
  H       15.565     233.225    -209.605
  P       12.770     230.804    -207.267
  C       11.266     230.361    -205.175
  O       11.938     231.295    -205.991
  O       13.023     229.245    -206.999
  O       12.155     231.110    -208.595
  H       13.627     229.082    -206.257
  H       11.075     230.818    -204.201
  H       11.865     229.456    -205.028
  H       10.307     230.094    -205.636
  H       20.279     236.277    -207.286
  H       19.312     236.144    -208.736
  H       20.889     235.393    -208.665

 3  4  5  6  7  8  9  10  11  12  13  24  28  29  30  31  32 0
 6-311+G(2d,p)
 ****
 33  34 0
 6-311+G(2d,p)
 ****
 1  2  14  15  16  17  18  19  20  21  22  23  25  26  27 0
 3-21G
 ****
 35  36  37  38  39  40  41  42  43  44  45 0
 3-21G
 ****


