%nproc=1
%NoSave
%Mem=1900MB
#P OB98/GEN NMR

erre ene a

0 1
  C      130.085     -27.400     -97.846
  O      129.153     -27.178     -96.808
  H      131.088     -27.450     -97.414
  H      130.054     -26.581     -98.570
  H      129.868     -28.347     -98.347
  P      127.623     -26.968     -97.239
  C      126.648     -24.594     -96.820
  O      127.459     -25.424     -97.641
  C      127.476     -24.071     -95.649
  O      128.649     -23.383     -96.146
  C      126.749     -23.055     -94.779
  O      125.844     -23.658     -93.871
  C      127.919     -22.388     -94.076
  O      128.334     -23.128     -92.918
  C      129.012     -22.395     -95.161
  N      129.195     -21.070     -95.751
  C      129.833     -20.132     -94.943
  O      130.230     -20.377     -93.806
  N      129.969     -18.880     -95.478
  C      129.495     -18.471     -96.688
  O      129.602     -17.316     -97.085
  C      128.813     -19.498     -97.492
  C      128.692     -20.733     -96.992
  O      126.834     -27.087     -95.852
  O      127.118     -27.938     -98.257
  H      126.364     -27.940     -95.812
  H      128.904     -22.524     -92.403
  H      130.431     -18.186     -94.909
  H      128.422     -19.207     -98.460
  H      128.185     -21.507     -97.559
  H      129.972     -22.713     -94.737
  H      127.656     -21.388     -93.742
  H      126.243     -22.312     -95.407
  H      127.809     -24.926     -95.045
  H      125.806     -25.174     -96.427
  H      126.256     -23.770     -97.422
  P      124.541     -22.820     -93.447
  C      124.536     -21.614     -91.108
  O      125.057     -21.698     -92.425
  O      123.790     -23.893     -92.530
  O      123.758     -22.326     -94.615
  H      124.414     -24.520     -92.120
  H      125.006     -20.805     -90.589
  H      124.728     -22.530     -90.589
  H      123.481     -21.444     -91.152

 6  7  8  9  10  11  12  13  14  15  16  27  31  32  33  34  35 0
 6-311+G(2d,p)
 ****
 36  37 0
 6-311+G(2d,p)
 ****
 1  2  3  4  5  17  18  19  20  21  22  23  24  25 0
 3-21G
 ****
 26  28  29  30  38  39  40  41  42  43  44  45 0
 3-21G
 ****


