%nproc=1
%NoSave
%Mem=1900MB
#P OB98/GEN NMR

erre ene a

0 1
  C      -10.604      67.937     120.173
  O      -11.388      68.513     121.199
  H      -11.220      67.220     119.621
  H       -9.750      67.407     120.604
  H      -10.255      68.709     119.481
  P      -10.679      69.630     122.106
  C       -9.741      67.911     123.819
  O       -9.451      68.902     122.839
  C       -8.513      67.033     124.046
  O       -8.262      66.242     122.863
  C       -7.226      67.812     124.300
  O       -7.141      68.275     125.638
  C       -6.175      66.765     123.953
  O       -5.926      65.883     125.055
  C       -6.840      65.994     122.805
  N       -2.921      65.455     119.589
  C       -3.193      64.886     120.785
  N       -4.275      65.070     121.573
  C       -5.128      65.938     121.005
  C       -4.983      66.601     119.798
  C       -3.814      66.328     119.069
  N       -3.518      66.934     117.869
  N       -6.052      67.448     119.576
  C       -6.834      67.292     120.625
  N       -6.317      66.386     121.511
  O      -11.741      69.860     123.284
  O      -10.339      70.902     121.402
  H       -5.673      66.446     125.812
  H      -12.313      70.619     123.064
  H       -2.442      64.195     121.160
  H       -7.769      67.812     120.793
  H       -6.697      64.909     122.898
  H       -5.224      67.230     123.689
  H       -7.142      68.647     123.593
  H       -8.723      66.346     124.877
  H      -10.571      67.286     123.467
  H      -10.038      68.408     124.749
  H       -2.648      66.707     117.413
  H       -4.126      67.666     117.525
  P       -6.373      69.652     125.921
  C       -3.955      68.702     125.800
  O       -4.931      69.558     125.224
  O       -6.046      69.574     127.486
  O       -7.146      70.881     125.573
  H       -6.687      70.103     127.995
  H       -3.054      68.750     125.224
  H       -4.321      67.697     125.807
  H       -3.754      69.015     126.803

 6  7  8  9  10  11  12  13  14  15  25  28  32  33  34  35 0
 6-311+G(2d,p)
 ****
 36  37  40 0
 6-311+G(2d,p)
 ****
 1  2  3  4  5  16  17  18  19  20  21  22  23  24 0
 3-21G
 ****
 26  27  29  30  31  38  39 41  42  43  44  45  46  47  48 0
 3-21G
 ****


