%nproc=1
%NoSave
%Mem=1900MB
#P OB98/GEN NMR

erre ene a

0 1
  C      110.684    -107.986    -400.419
  O      109.544    -108.345    -401.214
  P      108.148    -108.550    -400.454
  C      106.953    -110.448    -399.146
  O      108.163    -109.985    -399.729
  C      106.840    -111.982    -399.233
  O      106.819    -112.417    -400.622
  C      107.999    -112.723    -398.558
  O      107.513    -113.982    -398.067
  C      108.948    -112.982    -399.712
  O      109.878    -114.026    -399.410
  C      107.940    -113.302    -400.818
  N      110.457    -115.603    -404.548
  C      110.078    -116.073    -403.304
  N      110.385    -117.360    -403.029
  N      109.445    -115.349    -402.411
  C      109.179    -114.091    -402.847
  C      109.509    -113.502    -404.041
  C      110.225    -114.310    -405.010
  O      110.601    -113.933    -406.116
  N      109.081    -112.198    -404.098
  C      108.502    -111.995    -402.925
  N      108.499    -113.128    -402.148
  O      107.107    -108.754    -401.662
  O      107.747    -107.399    -399.595
  H      109.351    -114.787    -399.068
  H      106.540    -107.970    -401.749
  H      110.947    -116.196    -405.187
  H      108.071    -111.066    -402.599
  H      107.577    -114.333    -400.763
  H      109.513    -112.074    -399.947
  H      110.813    -117.985    -403.691
  H      108.473    -112.170    -397.736
  H      110.080    -117.740    -402.143
  H      105.893    -112.288    -398.782
  H      106.095    -109.993    -399.642
  H      106.907    -110.110    -398.106
  P      107.792    -114.318    -396.531
  C      109.280    -116.064    -395.299
  O      108.935    -115.440    -396.526
  O      106.480    -115.124    -396.077
  O      108.051    -113.131    -395.663
  H      106.349    -115.040    -395.118
  H      108.836    -117.064    -395.263
  H      108.929    -115.482    -394.432
  H      110.359    -116.156    -395.239
  H      111.541    -107.882    -401.051
  H      110.867    -108.750    -399.692
  H      110.494    -107.058    -399.921

 3  4  5  6  7  8  9  10  11  12  23  26  30  31 0
 6-311+G(2d,p)
 ****
 33  35  36  37  38 0
 6-311+G(2d,p)
 ****
 1  2  13  14  15  16  17  18  19  20  21  22  24  25 0
 3-21G
 ****
 27  28  29  32  34  39  40  41  42  43  44  45  46  47  48  49 0
 3-21G
 ****


