%nproc=1
%NoSave
%Mem=1900MB
#P OB98/GEN NMR

erre ene a

0 1
  C       57.387    -759.281      38.067
  O       58.085    -758.067      38.337
  P       57.501    -756.713      37.696
  C       59.798    -756.280      36.569
  O       58.391    -756.437      36.395
  C       60.561    -757.082      35.521
  O       59.848    -758.305      35.234
  C       60.729    -756.387      34.184
  O       61.794    -755.452      34.202
  C       61.039    -757.565      33.272
  O       62.432    -757.900      33.385
  C       60.166    -758.680      33.872
  N       57.924    -761.262      30.138
  C       59.221    -761.317      30.597
  N       60.041    -762.205      29.985
  N       59.689    -760.563      31.556
  C       58.753    -759.753      32.103
  C       57.433    -759.611      31.733
  C       56.943    -760.412      30.632
  O       55.815    -760.360      30.142
  N       56.790    -758.694      32.531
  C       57.707    -758.317      33.404
  N       58.925    -758.906      33.156
  O       57.990    -755.593      38.728
  O       56.021    -756.690      37.509
  H       62.549    -758.779      32.986
  H       57.389    -754.822      38.682
  H       57.610    -761.880      29.408
  H       57.543    -757.623      34.212
  H       60.723    -759.626      33.927
  H       60.836    -757.354      32.218
  H       59.705    -762.898      29.334
  H       59.786    -755.914      33.868
  H       60.991    -762.295      30.324
  H       61.536    -757.348      35.946
  H       60.074    -756.641      37.569
  H       60.054    -755.216      36.503
  P       61.436    -753.933      33.805
  C       63.669    -753.909      32.473
  O       62.273    -753.635      32.480
  O       62.171    -753.071      34.942
  O       59.966    -753.654      33.736
  H       61.715    -752.222      35.058
  H       63.898    -754.814      33.063
  H       64.203    -753.054      32.896
  H       63.992    -754.071      31.452
  H       57.884    -760.094      38.553
  H       57.368    -759.454      37.011
  H       56.385    -759.205      38.434

 3  4  5  6  7  8  9  10  11  12  23  26  30  31  33  0
 6-311+G(2d,p)
 ****
 35  36  37  38 0
 6-311+G(2d,p)
 ****
 1  2  13  14  15  16  17  18  19  20  21  22  24  25  27  28  29 0
 3-21G
 ****
 32  34  39  40  41  42  43  44  45  46  47  48  49 0
 3-21G
 ****


