%nproc=1
%NoSave
%Mem=1900MB
#P OB98/GEN NMR

erre ene a

0 1
  C     -384.802     621.504    -614.890
  O     -384.658     620.360    -615.706
  H     -385.755     621.436    -614.350
  H     -384.831     622.415    -615.493
  H     -383.991     621.559    -614.163
  P     -383.411     620.298    -616.719
  C     -383.026     617.768    -617.080
  O     -383.615     618.962    -617.577
  C     -383.140     616.651    -618.113
  O     -384.532     616.235    -618.248
  C     -382.707     617.065    -619.521
  O     -381.291     617.121    -619.602
  C     -383.379     616.004    -620.368
  O     -382.642     614.785    -620.358
  C     -384.737     615.839    -619.632
  N     -385.814     616.614    -620.254
  C     -386.081     616.337    -621.586
  O     -385.414     615.470    -622.187
  N     -387.055     617.053    -622.228
  C     -387.743     617.948    -621.580
  N     -388.698     618.611    -622.275
  C     -387.503     618.280    -620.160
  C     -386.533     617.576    -619.557
  O     -382.046     620.450    -616.116
  O     -383.734     621.467    -617.773
  H     -381.710     615.037    -620.533
  H     -383.349     622.315    -617.477
  H     -388.078     619.024    -619.655
  H     -386.293     617.742    -618.505
  H     -385.032     614.777    -619.609
  H     -383.482     616.325    -621.401
  H     -383.141     618.040    -619.775
  H     -382.560     615.781    -617.767
  H     -388.817     618.374    -623.250
  H     -383.555     617.501    -616.165
  H     -389.353     619.279    -621.858
  H     -381.962     617.935    -616.835
  P     -380.570     618.112    -620.648
  C     -378.674     618.670    -618.987
  O     -379.006     618.076    -620.245
  O     -381.177     619.469    -620.755
  O     -380.603     617.275    -622.020
  H     -381.506     617.279    -622.396
  H     -377.620     618.591    -618.822
  H     -379.196     618.162    -618.204
  H     -378.957     619.702    -618.994

 6  7  8  9  10  11  12  13  14  15  16  26  30  31  32  33  35 0
 6-311+G(2d,p)
 ****
 37  38 0
 6-311+G(2d,p)
 ****
 1  2  3  4  5  17  18  19  20  21  22  23  24  25 0
 3-21G
 ****
 27  28  29  34  36  39  40  41  42  43  44  45  46 0
 3-21G
 ****


