%nproc=1
%NoSave
%Mem=1900MB
#P OB98/GEN NMR

erre ene a

0 1
  C      -82.117    -986.673     214.951
  O      -83.271    -986.975     214.178
  P      -84.406    -985.840     214.071
  C      -84.437    -985.591     211.470
  O      -84.091    -985.024     212.726
  C      -85.548    -984.762     210.815
  O      -85.232    -983.358     210.891
  C      -85.766    -985.068     209.342
  O      -86.562    -986.226     209.176
  C      -86.426    -983.782     208.861
  O      -87.836    -983.788     209.174
  C      -85.682    -982.714     209.674
  N      -83.633    -978.391     208.027
  C      -84.894    -978.639     208.553
  N      -85.698    -977.570     208.690
  N      -85.310    -979.829     208.902
  C      -84.399    -980.798     208.677
  C      -83.129    -980.688     208.150
  C      -82.656    -979.370     207.823
  O      -81.526    -979.081     207.445
  N      -82.508    -981.908     208.084
  C      -83.391    -982.750     208.569
  N      -84.551    -982.126     208.972
  O      -83.993    -984.825     215.237
  O      -85.809    -986.328     214.195
  H      -87.947    -983.854     210.143
  H      -84.539    -984.983     216.036
  H      -83.356    -977.458     207.786
  H      -83.246    -983.814     208.674
  H      -86.340    -981.884     209.963
  H      -86.357    -983.656     207.776
  H      -85.447    -976.633     208.423
  H      -84.805    -985.190     208.827
  H      -86.621    -977.736     209.072
  H      -86.470    -984.930     211.378
  H      -84.798    -986.621     211.624
  H      -83.545    -985.622     210.833
  P      -86.378    -987.087     207.841
  C      -85.982    -989.263     209.210
  O      -85.500    -988.374     208.217
  O      -85.375    -986.193     206.968
  O      -87.652    -987.375     207.101
  H      -85.618    -986.272     206.014
  H      -85.609    -990.264     208.995
  H      -87.080    -989.279     209.239
  H      -85.607    -988.952     210.183
  H      -81.449    -987.509     214.937
  H      -82.408    -986.465     215.960
  H      -81.625    -985.817     214.538

 3  4  5  6  7  8  9  10  11  12  23  26  30  31 0
 6-311+G(2d,p)
 ****
 33  35  36  37  38 0
 6-311+G(2d,p)
 ****
 1  2  13  14  15  16  17  18  19  20  21  22  24  25 0
 3-21G
 ****
 27  28  29  32  34  39  40  41  42  43  44  45  46  47  48  49 0
 3-21G
 ****


