%nproc=1
%NoSave
%Mem=1900MB
#P OB98/GEN NMR

erre ene a

0 1
  C     -148.167    -716.494    -896.780
  O     -146.755    -716.165    -896.550
  P     -146.182    -714.800    -897.150
  C     -144.902    -713.631    -895.170
  O     -146.091    -713.670    -895.960
  C     -144.652    -712.205    -894.630
  O     -144.694    -711.272    -895.770
  C     -145.676    -711.692    -893.570
  O     -144.926    -710.810    -892.730
  C     -146.654    -710.891    -894.470
  O     -147.421    -709.957    -893.690
  C     -145.689    -710.235    -895.450
  N     -146.291    -709.761    -896.700
  C     -146.531    -708.378    -896.800
  O     -146.312    -707.549    -895.860
  N     -147.069    -707.971    -897.970
  C     -147.491    -708.738    -899.000
  O     -147.991    -708.283    -900.000
  C     -147.227    -710.186    -898.840
  C     -146.720    -710.608    -897.690
  O     -147.462    -714.223    -897.980
  O     -144.973    -714.917    -898.020
  H     -148.082    -710.538    -893.180
  H     -147.165    -713.917    -898.870
  H     -147.241    -706.952    -898.030
  H     -147.518    -710.858    -899.640
  H     -146.514    -711.678    -897.610
  H     -145.120    -709.419    -894.960
  H     -147.351    -711.602    -894.960
  H     -146.144    -712.524    -893.060
  H     -143.590    -712.172    -894.250
  H     -144.082    -713.982    -895.780
  H     -145.019    -714.354    -894.310
  P     -145.082    -711.023    -891.090
  C     -142.489    -710.762    -890.850
  O     -143.653    -711.508    -890.580
  O     -145.967    -712.369    -891.060
  O     -145.729    -709.822    -890.400
  H     -145.679    -713.049    -891.700
  H     -142.687    -709.634    -890.730
  H     -142.150    -710.957    -891.850
  H     -141.749    -710.993    -890.140
  H     -148.394    -717.432    -896.319
  H     -148.351    -716.560    -897.832
  H     -148.785    -715.730    -896.357

 3  4  5  6  7  8  9  10  11  12  13  23  28  29  30  31  32 0
 6-311+G(2d,p)
 ****
 33  34 0
 6-311+G(2d,p)
 ****
 1  2  14  15  16  17  18  19  20  21  22  24  25  26 0
 3-21G
 ****
 27  35  36  37  38  39  40  41  42  43  44  45 0
 3-21G
 ****


