%nproc=1
%NoSave
%Mem=1900MB
#P OB98/GEN NMR

erre ene a

0 1
  C       89.452     -16.544      -3.284
  O       89.245     -16.644      -4.679
  H       88.930     -15.658      -2.914
  H       90.520     -16.440      -3.069
  H       89.053     -17.427      -2.777
  P       89.957     -17.877      -5.420
  C       88.045     -19.576      -4.992
  O       89.389     -19.206      -4.721
  C       87.980     -21.015      -5.493
  O       88.334     -21.085      -6.893
  C       88.906     -21.979      -4.761
  O       88.322     -22.432      -3.552
  C       89.055     -23.088      -5.793
  O       87.926     -23.985      -5.771
  C       89.101     -22.300      -7.109
  N       93.219     -24.082      -9.421
  C       91.997     -24.680      -9.191
  N       91.874     -25.965      -9.592
  N       90.992     -24.080      -8.613
  C       91.273     -22.810      -8.237
  C       92.437     -22.101      -8.424
  C       93.531     -22.769      -9.094
  O       94.615     -22.273      -9.386
  N       92.330     -20.831      -7.920
  C       91.120     -20.784      -7.398
  N       90.445     -21.967      -7.550
  O       91.469     -17.806      -4.895
  O       89.891     -17.853      -6.909
  H       88.107     -24.741      -6.355
  H       92.064     -18.145      -5.590
  H       93.949     -24.590      -9.888
  H       90.691     -19.925      -6.902
  H       88.624     -22.843      -7.932
  H       89.940     -23.698      -5.605
  H       92.681     -26.558      -9.724
  H       89.884     -21.517      -4.580
  H       90.989     -26.418      -9.406
  H       86.937     -21.346      -5.408
  H       87.641     -18.909      -5.761
  H       87.451     -19.469      -4.078
  P       89.165     -23.465      -2.657
  C       90.588     -21.655      -1.447
  O       90.569     -22.754      -2.348
  O       89.558     -24.617      -3.695
  O       88.436     -24.000      -1.472
  H       89.833     -25.421      -3.214
  H       91.590     -21.293      -1.347
  H       90.225     -21.971      -0.491
  H       89.963     -20.873      -1.825

 6  7  8  9  10  11  12  13  14  15  26  29  33  34 0
 6-311+G(2d,p)
 ****
 36  38  39  40  41 0
 6-311+G(2d,p)
 ****
 1  2  3  4  5  16  17  18  19  20  21  22  23  24  25 0
 3-21G
 ****
 27  28  30  31  32  35  37  42  43  44  45  46  47 0
 3-21G
 ****
 48  49 0
 3-21G
 ****


