%nproc=1
%NoSave
%Mem=1900MB
#P OB98/GEN NMR

erre ene a

0 1
  C     -960.372     265.784    -663.658
  O     -959.412     266.084    -664.687
  P     -958.035     265.282    -664.635
  C     -957.055     267.548    -663.820
  O     -956.836     266.352    -664.563
  C     -955.717     268.224    -663.513
  O     -954.946     267.463    -662.546
  C     -954.817     268.370    -664.735
  O     -955.267     269.425    -665.567
  C     -953.471     268.637    -664.058
  O     -953.371     270.007    -663.633
  C     -953.543     267.716    -662.830
  N     -948.969     265.493    -663.408
  C     -949.334     266.782    -663.260
  N     -950.582     267.288    -663.114
  C     -951.503     266.317    -663.114
  C     -951.281     264.955    -663.259
  C     -949.938     264.549    -663.419
  N     -949.576     263.217    -663.610
  N     -952.467     264.252    -663.232
  C     -953.401     265.188    -663.089
  N     -952.861     266.458    -663.006
  O     -957.897     264.661    -666.106
  O     -957.999     264.208    -663.589
  H     -953.994     270.136    -662.882
  H     -958.059     263.703    -666.089
  H     -948.522     267.507    -663.247
  H     -954.474     265.006    -663.038
  H     -953.127     268.184    -661.931
  H     -952.615     268.433    -664.707
  H     -954.780     267.437    -665.300
  H     -955.928     269.216    -663.071
  H     -957.593     267.329    -662.892
  H     -948.604     263.029    -663.783
  H     -950.305     262.530    -663.693
  H     -957.709     268.215    -664.407
  P     -955.891     269.034    -666.987
  C     -953.754     268.031    -668.021
  O     -954.639     269.136    -668.000
  O     -956.741     270.336    -667.342
  O     -956.634     267.720    -667.012
  H     -956.251     271.157    -667.178
  H     -952.978     268.217    -668.768
  H     -954.298     267.121    -668.295
  H     -953.292     267.895    -667.030
  H     -961.247     266.383    -663.801
  H     -959.946     265.998    -662.700
  H     -960.636     264.748    -663.708

 3  4  5  6  7  8  9  10  11  12  22  25  29  30  31  32 0
 6-311+G(2d,p)
 ****
 33  36  37 0
 6-311+G(2d,p)
 ****
 1  2  13  14  15  16  17  18  19  20  21  23  24  26 0
 3-21G
 ****
 27  28  34  35  38  39  40  41  42  43  44  45  46  47  48 0
 3-21G
 ****


