%nproc=1
%NoSave
%Mem=1900MB
#P OB98/GEN NMR

erre ene a

0 1
  C       10.219    -803.089      77.386
  O        9.661    -802.901      76.098
  P        9.491    -804.138      75.091
  C        6.922    -804.059      75.291
  O        8.034    -803.955      74.429
  C        5.722    -803.329      74.699
  O        5.921    -801.886      74.686
  C        5.437    -803.669      73.237
  O        5.028    -804.984      72.947
  C        4.497    -802.547      72.844
  O        3.149    -802.818      73.265
  C        5.078    -801.337      73.642
  N        5.830    -800.425      72.772
  C        5.049    -799.654      71.906
  O        3.812    -799.711      71.850
  N        5.739    -798.817      71.064
  C        7.097    -798.701      70.993
  O        7.647    -797.960      70.189
  C        7.866    -799.557      71.923
  C        7.197    -800.367      72.763
  O        9.729    -805.474      75.690
  O       10.474    -803.767      73.879
  H        2.606    -802.067      72.979
  H       10.261    -802.927      73.427
  H        5.192    -798.259      70.432
  H        8.940    -799.481      71.884
  H        7.736    -800.996      73.447
  H        4.277    -800.776      74.143
  H        4.464    -802.387      71.760
  H        6.376    -803.513      72.677
  H        4.838    -803.516      75.337
  H        7.182    -803.582      76.254
  H        6.688    -805.102      75.487
  P        5.520    -805.792      71.659
  C        6.044    -808.049      72.797
  O        5.225    -807.350      71.884
  O        6.872    -805.426      71.094
  O        4.388    -805.410      70.571
  H        4.770    -805.399      69.673
  H        5.740    -809.121      72.810
  H        5.916    -807.666      73.816
  H        7.091    -808.010      72.502
  H       10.248    -802.152      77.902
  H       11.212    -803.475      77.291
  H        9.618    -803.782      77.937

 3  4  5  6  7  8  9  10  11  12  13  23  28  29  30  31  32 0
 6-311+G(2d,p)
 ****
 33  34 0
 6-311+G(2d,p)
 ****
 1  2  14  15  16  17  18  19  20  21  22  24  25  26  27 0
 3-21G
 ****
 35  36  37  38  39  40  41  42  43  44  45 0
 3-21G
 ****


