%nproc=1
%NoSave
%Mem=1900MB
#P OB98/GEN NMR

erre ene a

0 1
  C     -580.786    -105.623    -506.988
  O     -582.134    -105.251    -506.769
  H     -580.300    -104.914    -507.664
  H     -580.262    -105.612    -506.027
  H     -580.740    -106.634    -507.407
  P     -583.052    -105.103    -508.078
  C     -585.242    -106.278    -507.343
  O     -584.036    -106.372    -508.087
  C     -586.007    -107.596    -507.414
  O     -585.191    -108.670    -506.893
  C     -587.291    -107.631    -506.593
  O     -588.359    -106.974    -507.249
  C     -587.524    -109.133    -506.502
  O     -588.137    -109.601    -507.719
  C     -586.095    -109.688    -506.385
  N     -585.359    -113.490    -503.004
  C     -585.760    -113.494    -504.298
  N     -585.946    -112.451    -505.129
  C     -585.654    -111.291    -504.510
  C     -585.240    -111.125    -503.200
  C     -585.097    -112.288    -502.429
  N     -584.705    -112.274    -501.104
  N     -585.021    -109.795    -502.921
  C     -585.306    -109.158    -504.043
  N     -585.703    -110.022    -505.029
  O     -582.043    -105.412    -509.282
  O     -583.714    -103.775    -508.244
  H     -589.074    -109.353    -507.674
  H     -582.274    -104.846    -510.044
  H     -585.958    -114.475    -504.727
  H     -585.235    -108.091    -504.180
  H     -585.956    -110.576    -507.012
  H     -588.180    -109.421    -505.674
  H     -587.128    -107.231    -505.581
  H     -586.214    -107.813    -508.467
  H     -585.867    -105.481    -507.766
  H     -584.435    -113.139    -500.669
  H     -584.503    -111.370    -500.684
  H     -585.003    -106.025    -506.305
  P     -588.847    -105.563    -506.648
  C     -588.631    -104.123    -508.799
  O     -588.092    -104.440    -507.520
  O     -588.098    -105.494    -505.232
  O     -590.322    -105.411    -506.502
  H     -588.585    -104.919    -504.619
  H     -588.032    -103.367    -509.261
  H     -589.633    -103.764    -508.685
  H     -588.634    -105.000    -509.412

 6  7  8  9  10  11  12  13  14  15  25  28  32  33  34  35 0
 6-311+G(2d,p)
 ****
 36  39  40 0
 6-311+G(2d,p)
 ****
 1  2  3  4  5  16  17  18  19  20  21  22  23  24 0
 3-21G
 ****
 26  27  29  30  31  37  38  41  42  43  44  45  46  47  48 0
 3-21G
 ****


