%nproc=1
%NoSave
%Mem=1900MB
#P OB98/GEN NMR

erre ene a

0 1
  C     -275.386     271.464    -186.274
  O     -276.152     272.411    -187.024
  P     -277.617     272.756    -186.461
  C     -279.142     272.965    -188.558
  O     -278.373     273.640    -187.570
  C     -279.169     273.791    -189.850
  O     -279.897     275.028    -189.682
  C     -277.783     274.198    -190.339
  O     -277.113     273.104    -190.933
  C     -278.144     275.318    -191.307
  O     -278.593     274.776    -192.566
  C     -279.328     275.994    -190.594
  N     -278.910     281.094    -190.797
  C     -279.328     280.188    -191.700
  N     -279.404     278.839    -191.575
  C     -279.014     278.462    -190.348
  C     -278.561     279.270    -189.313
  C     -278.519     280.653    -189.578
  N     -278.081     281.575    -188.655
  N     -278.245     278.517    -188.206
  C     -278.469     277.268    -188.569
  N     -278.944     277.186    -189.849
  O     -277.325     273.788    -185.278
  O     -278.370     271.557    -185.982
  H     -277.839     274.288    -192.954
  H     -277.492     273.363    -184.416
  H     -279.635     280.585    -192.668
  H     -278.307     276.399    -187.943
  H     -280.119     276.292    -191.292
  H     -277.308     275.989    -191.521
  H     -277.191     274.596    -189.509
  H     -279.678     273.191    -190.621
  H     -280.163     272.803    -188.207
  H     -278.003     282.542    -188.943
  H     -277.697     281.252    -187.776
  H     -278.700     271.976    -188.733
  P     -275.569     272.878    -190.536
  C     -274.614     272.110    -192.803
  O     -275.095     271.704    -191.536
  O     -275.696     272.126    -189.140
  O     -274.725     274.112    -190.553
  H     -276.367     271.414    -189.170
  H     -274.301     271.220    -193.357
  H     -273.759     272.784    -192.690
  H     -275.410     272.610    -193.357
  H     -274.437     271.319    -186.746
  H     -275.911     270.532    -186.235
  H     -275.238     271.832    -185.280

 3  4  5  6  7  8  9  10  11  12  22  25  29  30  31  32 0
 6-311+G(2d,p)
 ****
 33  36  37 0
 6-311+G(2d,p)
 ****
 1  2  13  14  15  16  17  18  19  20  21  23  24  26 0
 3-21G
 ****
 27  28  34  35  38  39  40  41  42  43  44  45  46  47  48 0
 3-21G
 ****


