%nproc=1
%NoSave
%Mem=1900MB
#P OB98/GEN NMR

erre ene a

0 1
  C     -895.800    -224.849    -882.548
  O     -895.390    -226.158    -882.116
  P     -896.350    -226.990    -881.147
  C     -896.710    -229.170    -882.509
  O     -897.290    -227.970    -882.020
  C     -896.420    -229.064    -883.995
  O     -895.400    -228.067    -884.273
  C     -895.860    -230.351    -884.599
  O     -896.730    -231.456    -884.689
  C     -895.210    -229.863    -885.884
  O     -896.180    -229.742    -886.934
  C     -894.680    -228.455    -885.466
  N     -893.240    -228.447    -885.240
  C     -892.530    -227.429    -885.879
  O     -893.060    -226.632    -886.642
  N     -891.190    -227.420    -885.641
  C     -890.480    -228.305    -884.871
  O     -889.270    -228.255    -884.722
  C     -891.290    -229.372    -884.253
  C     -892.620    -229.391    -884.446
  O     -897.060    -226.212    -880.091
  O     -895.340    -228.038    -880.462
  H     -895.740    -229.307    -887.692
  H     -895.570    -228.113    -879.523
  H     -890.650    -226.681    -886.096
  H     -890.760    -230.101    -883.634
  H     -893.220    -230.164    -883.997
  H     -894.920    -227.730    -886.229
  H     -894.430    -230.554    -886.237
  H     -895.030    -230.691    -883.956
  H     -897.340    -228.761    -884.516
  H     -897.390    -230.009    -882.313
  H     -895.790    -229.379    -881.937
  P     -896.680    -232.711    -883.690
  C     -899.230    -232.971    -883.312
  O     -897.980    -232.669    -882.743
  O     -895.370    -233.010    -883.029
  O     -897.040    -233.914    -884.663
  H     -896.560    -234.722    -884.371
  H     -900.000    -232.868    -882.537
  H     -899.240    -234.001    -883.677
  H     -899.480    -232.288    -884.125
  H     -895.049    -224.433    -883.187
  H     -895.933    -224.217    -881.695
  H     -896.723    -224.923    -883.084

 3  4  5  6  7  8  9  10  11  12  13  23  28  29  30  31  32 0
 6-311+G(2d,p)
 ****
 33  34 0
 6-311+G(2d,p)
 ****
 1  2  14  15  16  17  18  19  20  21  22  24  25  26  27 0
 3-21G
 ****
 35  36  37  38  39  40  41  42  43  44  45 0
 3-21G
 ****


