%nproc=1
%NoSave
%Mem=1900MB
#P OB98/GEN NMR

erre ene a

0 1
  C     -385.794     804.760     -20.074
  O     -386.872     805.514     -19.502
  P     -387.453     806.864     -20.152
  C     -387.755     808.263     -17.994
  O     -388.391     807.577     -19.065
  C     -388.780     808.985     -17.122
  O     -389.664     809.786     -17.942
  C     -389.716     808.081     -16.338
  O     -389.079     807.462     -15.239
  C     -390.822     809.066     -15.945
  O     -390.477     809.798     -14.762
  C     -390.855     810.022     -17.160
  N     -392.053     809.868     -17.968
  C     -393.211     810.476     -17.484
  O     -393.218     811.036     -16.389
  N     -394.352     810.428     -18.257
  C     -394.354     809.735     -19.352
  N     -395.508     809.737     -20.087
  C     -393.190     808.963     -19.830
  C     -392.085     809.073     -19.097
  O     -388.109     806.665     -21.480
  O     -386.191     807.843     -20.275
  H     -386.342     808.480     -21.002
  H     -390.374     809.138     -14.042
  H     -393.251     808.369     -20.728
  H     -391.176     808.557     -19.380
  H     -390.778     811.062     -16.822
  H     -391.773     808.564     -15.750
  H     -390.129     807.324     -17.010
  H     -388.233     809.654     -16.442
  H     -396.278     810.285     -19.732
  H     -387.063     809.004     -18.421
  H     -395.608     809.253     -20.962
  H     -387.171     807.548     -17.404
  P     -389.507     805.950     -14.905
  C     -389.395     806.156     -12.316
  O     -388.867     805.565     -13.487
  O     -388.672     805.078     -15.954
  O     -390.978     805.685     -15.022
  H     -389.225     804.340     -16.282
  H     -389.235     805.478     -11.476
  H     -390.473     806.345     -12.413
  H     -388.888     807.098     -12.119
  H     -385.590     803.907     -19.461
  H     -384.920     805.375     -20.132
  H     -386.067     804.436     -21.056

 3  4  5  6  7  8  9  10  11  12  13  24  27  28  29  30  32 0
 6-311+G(2d,p)
 ****
 34  35 0
 6-311+G(2d,p)
 ****
 1  2  14  15  16  17  18  19  20  21  22  23  25  26 0
 3-21G
 ****
 31  33  36  37  38  39  40  41  42  43  44  45  46 0
 3-21G
 ****


