%nproc=1
%NoSave
%Mem=1900MB
#P OB98/GEN NMR

erre ene a

0 1
  C      228.689       4.710     -44.384
  O      229.102       4.261     -45.658
  H      228.772       3.877     -43.678
  H      227.647       5.036     -44.416
  H      229.324       5.528     -44.034
  P      229.237       5.331     -46.846
  C      227.586       6.763     -48.216
  O      227.755       5.618     -47.388
  C      226.147       6.836     -48.718
  O      225.886       5.746     -49.631
  C      225.103       6.698     -47.615
  O      224.989       7.887     -46.855
  C      223.874       6.329     -48.429
  O      223.259       7.494     -48.992
  C      224.476       5.439     -49.539
  N      224.261       4.016     -49.278
  C      223.098       3.463     -49.807
  O      222.283       4.102     -50.469
  N      222.868       2.149     -49.493
  C      223.595       1.401     -48.611
  O      223.216       0.319     -48.171
  C      224.844       2.016     -48.133
  C      225.109       3.279     -48.474
  O      230.248       5.007     -47.896
  O      229.604       6.693     -46.084
  H      230.562       6.863     -46.176
  H      222.761       7.182     -49.778
  H      222.003       1.753     -49.839
  H      225.488       1.426     -47.489
  H      226.008       3.767     -48.106
  H      224.034       5.686     -50.512
  H      223.127       5.819     -47.817
  H      225.361       5.855     -46.962
  H      226.017       7.778     -49.265
  H      228.268       6.683     -49.073
  H      227.843       7.660     -47.640
  P      224.921       7.822     -45.256
  C      223.225       7.164     -43.439
  O      223.447       7.348     -44.833
  O      225.414       9.040     -44.548
  O      225.819       6.548     -44.882
  H      226.459       6.804     -44.189
  H      222.215       6.850     -43.277
  H      223.398       8.087     -42.925
  H      223.895       6.417     -43.067

 6  7  8  9  10  11  12  13  14  15  16  27  31  32  33  34  35 0
 6-311+G(2d,p)
 ****
 36  37 0
 6-311+G(2d,p)
 ****
 1  2  3  4  5  17  18  19  20  21  22  23  24  25 0
 3-21G
 ****
 26  28  29  30  38  39  40  41  42  43  44  45 0
 3-21G
 ****


