%nproc=1
%NoSave
%Mem=1900MB
#P OB98/GEN NMR

erre ene a

0 1
  C       30.928    -273.943    -243.544
  O       30.684    -272.737    -244.245
  P       31.314    -272.502    -245.702
  C       33.262    -271.166    -244.683
  O       32.891    -272.252    -245.532
  C       34.771    -271.186    -244.439
  O       35.164    -272.375    -243.702
  C       35.617    -271.203    -245.700
  O       35.615    -269.948    -246.356
  C       36.968    -271.637    -245.145
  O       37.661    -270.522    -244.562
  C       36.546    -272.640    -244.046
  N       36.739    -274.025    -244.458
  C       37.976    -274.591    -244.166
  O       38.875    -273.901    -243.661
  N       38.180    -275.919    -244.456
  C       37.270    -276.585    -245.102
  N       37.502    -277.912    -245.308
  C       36.007    -275.981    -245.572
  C       35.796    -274.712    -245.203
  O       30.610    -271.497    -246.548
  O       31.264    -273.962    -246.385
  H       30.849    -273.874    -247.264
  H       38.381    -270.890    -244.024
  H       35.315    -276.562    -246.163
  H       34.888    -274.191    -245.485
  H       37.118    -272.461    -243.132
  H       37.614    -272.055    -245.915
  H       35.242    -271.975    -246.382
  H       35.024    -270.304    -243.818
  H       38.373    -278.297    -244.952
  H       32.731    -271.263    -243.735
  H       36.752    -278.572    -245.490
  H       32.965    -270.222    -245.153
  P       36.402    -269.856    -247.753
  C       38.504    -268.637    -246.843
  O       37.975    -269.816    -247.423
  O       36.087    -268.374    -248.267
  O       35.992    -270.889    -248.772
  H       35.989    -268.375    -249.241
  H       39.454    -268.886    -246.366
  H       37.827    -268.222    -246.087
  H       38.678    -267.900    -247.625
  H       30.428    -273.913    -242.598
  H       31.980    -274.058    -243.388
  H       30.560    -274.769    -244.116

 3  4  5  6  7  8  9  10  11  12  13  24  27  28  29  30  32 0
 6-311+G(2d,p)
 ****
 34  35 0
 6-311+G(2d,p)
 ****
 1  2  14  15  16  17  18  19  20  21  22  23  25  26 0
 3-21G
 ****
 31  33  36  37  38  39  40  41  42  43  44  45  46 0
 3-21G
 ****


