%nproc=1
%NoSave
%Mem=1900MB
#P OB98/GEN NMR

erre ene a

0 1
  C      193.603     -19.970      46.928
  O      194.889     -19.356      46.952
  P      195.745     -19.373      45.598
  C      197.518     -20.988      44.536
  O      196.728     -20.637      45.657
  C      198.349     -22.252      44.821
  O      199.341     -21.931      45.830
  C      197.567     -23.434      45.383
  O      198.338     -24.623      45.198
  C      197.512     -23.094      46.856
  O      197.195     -24.235      47.649
  C      198.903     -22.470      47.105
  N      198.900     -21.405      48.132
  C      198.911     -21.779      49.473
  O      198.922     -22.946      49.861
  N      198.871     -20.758      50.383
  C      198.862     -19.427      50.094
  O      198.736     -18.557      50.945
  C      198.992     -19.087      48.671
  C      198.994     -20.071      47.772
  O      196.715     -18.112      45.752
  O      194.913     -19.295      44.362
  H      196.286     -24.511      47.389
  H      196.413     -17.383      45.179
  H      198.810     -21.015      51.357
  H      199.056     -18.039      48.406
  H      199.070     -19.835      46.713
  H      199.625     -23.231      47.428
  H      196.730     -22.348      47.034
  H      196.570     -23.565      44.955
  H      198.886     -22.542      43.910
  H      198.172     -20.156      44.268
  H      196.868     -21.168      43.672
  P      197.637     -25.870      44.475
  C      197.117     -28.287      45.175
  O      197.387     -26.970      45.614
  O      198.298     -26.364      43.233
  O      196.155     -25.327      44.185
  H      195.736     -25.873      43.496
  H      197.474     -28.990      45.931
  H      197.616     -28.504      44.226
  H      196.039     -28.412      45.053
  H      193.149     -19.884      47.893
  H      193.706     -21.004      46.673
  H      192.989     -19.483      46.200

 3  4  5  6  7  8  9  10  11  12  13  23  28  29  30  31  32 0
 6-311+G(2d,p)
 ****
 33  34 0
 6-311+G(2d,p)
 ****
 1  2  14  15  16  17  18  19  20  21  22  24  25  26  27 0
 3-21G
 ****
 35  36  37  38  39  40  41  42  43  44  45 0
 3-21G
 ****


