%nproc=1
%NoSave
%Mem=1900MB
#P OB98/GEN NMR

erre ene a

0 1
  C     -681.049     438.020     416.154
  O     -681.350     436.793     415.529
  H     -680.449     437.828     417.048
  H     -681.983     438.507     416.460
  H     -680.488     438.679     415.488
  P     -681.866     436.844     414.014
  C     -679.706     437.621     412.798
  O     -680.591     436.546     413.081
  C     -678.286     437.090     412.560
  O     -677.815     436.455     413.796
  C     -678.176     436.049     411.431
  O     -676.937     436.245     410.748
  C     -678.099     434.744     412.194
  O     -677.480     433.709     411.432
  C     -677.300     435.164     413.422
  N     -675.335     430.914     415.228
  C     -674.875     431.761     414.247
  N     -673.754     431.403     413.590
  N     -675.483     432.880     413.921
  C     -676.585     433.134     414.665
  C     -677.140     432.372     415.659
  C     -676.476     431.127     416.006
  O     -676.835     430.322     416.846
  N     -678.297     432.952     416.129
  C     -678.449     434.039     415.400
  N     -677.435     434.200     414.499
  O     -682.136     438.411     413.788
  O     -683.077     436.021     413.721
  H     -677.107     433.049     412.049
  H     -683.080     438.608     413.958
  H     -674.845     430.057     415.433
  H     -679.273     434.733     415.478
  H     -676.234     435.276     413.212
  H     -679.107     434.400     412.474
  H     -673.220     430.574     413.802
  H     -678.999     436.082     410.720
  H     -673.386     432.033     412.893
  H     -677.621     437.943     412.371
  H     -679.696     438.305     413.651
  H     -680.067     438.157     411.915
  P     -676.940     436.201     409.143
  C     -675.427     438.308     408.936
  O     -675.628     436.941     408.602
  O     -678.118     437.226     408.761
  O     -677.201     434.848     408.573
  H     -678.582     436.916     407.954
  H     -674.512     438.651     408.501
  H     -675.377     438.412     410.000
  H     -676.241     438.891     408.559

 6  7  8  9  10  11  12  13  14  15  26  29  33  34 0
 6-311+G(2d,p)
 ****
 36  38  39  40  41 0
 6-311+G(2d,p)
 ****
 1  2  3  4  5  16  17  18  19  20  21  22  23  24  25 0
 3-21G
 ****
 27  28  30  31  32  35  37  42  43  44  45  46  47 0
 3-21G
 ****
 48  49 0
 3-21G
 ****


