%nproc=1
%NoSave
%Mem=1900MB
#P OB98/GEN NMR

erre ene a

0 1
  C      179.832     140.182     218.057
  O      179.061     140.967     217.169
  H      180.474     139.499     217.497
  H      180.462     140.846     218.657
  H      179.179     139.616     218.726
  P      178.090     140.177     216.165
  C      179.936     140.064     214.349
  O      179.028     139.336     215.166
  C      180.729     139.099     213.469
  O      181.814     138.547     214.257
  C      179.910     137.930     212.897
  O      179.978     137.931     211.468
  C      180.620     136.685     213.410
  O      180.704     135.643     212.439
  C      181.999     137.201     213.807
  N      184.384     132.794     214.737
  C      184.261     133.520     213.604
  N      183.703     134.738     213.445
  C      183.268     135.217     214.623
  C      183.344     134.603     215.861
  C      183.919     133.324     215.891
  N      183.999     132.560     217.036
  N      182.780     135.406     216.840
  C      182.330     136.463     216.194
  N      182.584     136.384     214.849
  O      177.498     141.340     215.237
  O      177.005     139.391     216.823
  H      181.151     134.894     212.871
  H      176.529     141.244     215.167
  H      184.652     133.058     212.701
  H      181.778     137.281     216.639
  H      182.692     137.219     212.957
  H      180.075     136.302     214.279
  H      178.865     137.948     213.221
  H      181.188     139.676     212.656
  H      180.634     140.623     214.982
  H      184.320     131.609     216.944
  H      183.555     132.903     217.876
  H      179.374     140.777     213.739
  P      178.827     138.743     210.693
  C      177.317     136.704     210.104
  O      177.465     137.906     210.848
  O      179.211     138.533     209.153
  O      178.750     140.186     211.059
  H      178.877     139.278     208.619
  H      176.363     136.269     210.316
  H      178.091     136.018     210.378
  H      177.386     136.921     209.058

 6  7  8  9  10  11  12  13  14  15  25  28  32  33  34  35 0
 6-311+G(2d,p)
 ****
 36  39  40 0
 6-311+G(2d,p)
 ****
 1  2  3  4  5  16  17  18  19  20  21  22  23  24 0
 3-21G
 ****
 26  27  29  30  31  37  38  41  42  43  44  45  46  47  48 0
 3-21G
 ****


