%nproc=1
%NoSave
%Mem=1900MB
#P OB98/GEN NMR

erre ene a

0 1
  C      -66.347     358.059     107.201
  O      -66.779     357.958     105.837
  P      -68.298     358.412     105.543
  C      -69.349     356.040     105.825
  O      -69.282     357.389     106.306
  C      -70.470     355.252     106.499
  O      -71.739     355.904     106.263
  C      -70.613     353.801     106.011
  O      -70.973     352.967     107.128
  C      -71.825     353.869     105.090
  O      -72.447     352.592     104.933
  C      -72.662     354.914     105.818
  N      -77.029     354.130     103.361
  C      -76.341     353.299     104.235
  N      -76.889     352.088     104.471
  N      -75.222     353.639     104.828
  C      -74.810     354.897     104.522
  C      -75.402     355.807     103.677
  C      -76.614     355.405     102.994
  O      -77.240     356.073     102.164
  N      -74.673     356.984     103.622
  C      -73.654     356.770     104.415
  N      -73.686     355.526     104.982
  O      -68.492     358.054     103.993
  O      -68.558     359.857     105.808
  H      -73.293     352.737     104.478
  H      -68.765     358.852     103.500
  H      -77.871     353.815     102.922
  H      -72.852     357.466     104.605
  H      -73.150     354.482     106.698
  H      -71.505     354.215     104.102
  H      -77.776     351.791     104.102
  H      -69.732     353.395     105.514
  H      -76.430     351.486     105.152
  H      -70.295     355.271     107.586
  H      -68.385     355.542     106.009
  H      -69.502     356.069     104.740
  P      -69.827     351.978     107.680
  C      -70.510     349.846     106.344
  O      -69.592     350.909     106.514
  O      -70.585     351.142     108.821
  O      -68.621     352.681     108.199
  H      -69.948     350.847     109.491
  H      -71.416     350.002     106.948
  H      -70.037     348.915     106.668
  H      -70.784     349.775     105.299
  H      -65.331     357.734     107.278
  H      -66.967     357.442     107.818
  H      -66.421     359.076     107.524

 3  4  5  6  7  8  9  10  11  12  23  26  30  31  33  0
 6-311+G(2d,p)
 ****
 35  36  37  38 0
 6-311+G(2d,p)
 ****
 1  2  13  14  15  16  17  18  19  20  21  22  24  25  27  28  29 0
 3-21G
 ****
 32  34  39  40  41  42  43  44  45  46  47  48  49 0
 3-21G
 ****


