%nproc=1
%NoSave
%Mem=1900MB
#P OB98/GEN NMR

erre ene a

0 1
  C     -618.863     -70.356     328.899
  O     -619.873     -69.395     329.132
  H     -619.336     -71.302     328.629
  H     -618.274     -70.501     329.807
  H     -618.212     -70.040     328.079
  P     -619.412     -67.870     329.313
  C     -620.711     -67.284     331.489
  O     -620.607     -67.120     330.084
  C     -622.105     -66.885     331.961
  O     -622.295     -65.464     331.694
  C     -623.244     -67.637     331.256
  O     -624.293     -67.861     332.210
  C     -623.719     -66.646     330.215
  O     -625.055     -66.857     329.784
  C     -623.532     -65.318     330.967
  N     -623.481     -64.170     330.070
  C     -624.677     -63.490     329.845
  O     -625.745     -63.731     330.397
  N     -624.609     -62.476     328.919
  C     -623.503     -62.107     328.202
  O     -623.513     -61.206     327.376
  C     -622.279     -62.870     328.487
  C     -622.325     -63.850     329.388
  O     -619.507     -67.288     327.825
  O     -618.062     -67.674     329.921
  H     -618.658     -67.411     327.357
  H     -625.261     -66.176     329.116
  H     -625.459     -61.975     328.738
  H     -621.385     -62.615     327.930
  H     -621.446     -64.443     329.604
  H     -624.333     -65.187     331.702
  H     -623.068     -66.691     329.334
  H     -622.942     -68.590     330.812
  H     -622.162     -67.016     333.049
  H     -619.969     -66.648     331.984
  H     -620.503     -68.330     331.746
  P     -624.814     -69.367     332.393
  C     -627.346     -68.761     332.677
  O     -626.152     -69.257     333.268
  O     -623.724     -69.945     333.402
  O     -624.938     -70.101     331.102
  H     -623.410     -69.290     334.049
  H     -628.130     -68.759     333.405
  H     -627.624     -69.387     331.855
  H     -627.183     -67.764     332.326

 6  7  8  9  10  11  12  13  14  15  16  27  31  32  33  34  35 0
 6-311+G(2d,p)
 ****
 36  37 0
 6-311+G(2d,p)
 ****
 1  2  3  4  5  17  18  19  20  21  22  23  24  25 0
 3-21G
 ****
 26  28  29  30  38  39  40  41  42  43  44  45 0
 3-21G
 ****


