%nproc=1
%NoSave
%Mem=1900MB
#P OB98/GEN NMR

erre ene a

0 1
  C       13.373    -893.530    -379.934
  O       13.219    -894.900    -380.344
  P       13.500    -896.080    -379.293
  C       11.694    -897.940    -379.644
  O       12.105    -896.780    -378.931
  C       10.539    -898.640    -378.924
  O       10.916    -898.950    -377.564
  C        9.279    -897.790    -378.801
  O        8.555    -897.750    -380.021
  C        8.539    -898.510    -377.680
  O        7.819    -899.660    -378.186
  C        9.704    -898.960    -376.768
  N        9.818    -898.130    -375.564
  C        8.833    -898.290    -374.601
  O        7.878    -899.060    -374.744
  N        8.994    -897.550    -373.460
  C        9.954    -896.620    -373.241
  O       10.024    -895.950    -372.214
  C       10.923    -896.410    -374.340
  C       10.814    -897.160    -375.427
  O       13.811    -895.250    -377.952
  O       14.631    -897.000    -379.629
  H        7.254    -899.980    -377.464
  H       14.397    -895.790    -377.376
  H        8.294    -897.680    -372.741
  H       11.693    -895.660    -374.219
  H       11.505    -897.030    -376.254
  H        9.563    -900.000    -376.451
  H        7.809    -897.860    -377.185
  H        9.531    -896.780    -378.485
  H       10.340    -899.590    -379.433
  H       12.541    -898.640    -379.742
  H       11.384    -897.650    -380.665
  P        7.897    -896.360    -380.437
  C        9.376    -896.280    -382.592
  O        8.952    -895.650    -381.409
  O        7.985    -895.550    -379.050
  O        6.503    -896.520    -380.976
  H        8.788    -895.800    -378.533
  H        8.586    -896.860    -383.042
  H       10.236    -896.920    -382.370
  H        9.687    -895.500    -383.296
  H       13.146    -892.884    -380.756
  H       14.381    -893.364    -379.617
  H       12.706    -893.323    -379.124

 3  4  5  6  7  8  9  10  11  12  13  23  28  29  30  31  32 0
 6-311+G(2d,p)
 ****
 33  34 0
 6-311+G(2d,p)
 ****
 1  2  14  15  16  17  18  19  20  21  22  24  25  26 0
 3-21G
 ****
 27  35  36  37  38  39  40  41  42  43  44  45 0
 3-21G
 ****


