%nproc=1
%NoSave
%Mem=1900MB
#P OB98/GEN NMR

erre ene a

0 1
  C       92.827      56.569    -204.023
  O       92.797      56.910    -205.416
  P       91.652      56.404    -206.424
  C       92.968      54.780    -207.937
  O       91.994      54.912    -206.911
  C       92.892      53.410    -208.626
  O       93.404      52.370    -207.734
  C       91.470      52.987    -209.046
  O       91.597      52.321    -210.308
  C       91.085      52.015    -207.939
  O       90.009      51.161    -208.278
  C       92.432      51.304    -207.743
  N       92.541      50.495    -206.530
  C       93.283      49.309    -206.604
  O       93.778      48.924    -207.663
  N       93.432      48.555    -205.462
  C       92.889      48.945    -204.349
  N       93.088      48.160    -203.254
  C       92.086      50.175    -204.230
  C       91.957      50.894    -205.345
  O       91.389      57.348    -207.553
  O       90.338      56.223    -205.524
  H       89.553      56.473    -206.047
  H       90.300      50.585    -209.008
  H       91.656      50.467    -203.283
  H       91.404      51.828    -205.335
  H       92.644      50.680    -208.618
  H       90.794      52.592    -207.055
  H       90.778      53.828    -209.161
  H       93.557      53.429    -209.499
  H       93.655      47.324    -203.374
  H       93.961      54.893    -207.491
  H       92.718      48.370    -202.339
  H       92.827      55.585    -208.673
  P       91.158      53.078    -211.654
  C       88.628      52.681    -211.155
  O       89.658      53.606    -211.446
  O       90.933      51.850    -212.664
  O       92.147      54.043    -212.228
  H       91.056      52.161    -213.581
  H       88.006      53.085    -210.350
  H       89.018      51.708    -210.841
  H       88.006      52.547    -212.049
  H       93.681      57.022    -203.563
  H       92.887      55.506    -203.917
  H       91.936      56.925    -203.549

 3  4  5  6  7  8  9  10  11  12  13  24  27  28  29  30  32 0
 6-311+G(2d,p)
 ****
 34  35 0
 6-311+G(2d,p)
 ****
 1  2  14  15  16  17  18  19  20  21  22  23  25  26 0
 3-21G
 ****
 31  33  36  37  38  39  40  41  42  43  44  45  46 0
 3-21G
 ****


