%nproc=1
%NoSave
%Mem=1900MB
#P OB98/GEN NMR

erre ene a

0 1
  C      249.421      60.715     -63.784
  O      250.060      61.431     -64.816
  P      251.549      61.141     -65.307
  C      252.521      63.195     -64.012
  O      252.568      61.794     -64.256
  C      253.673      63.917     -64.724
  O      253.414      65.344     -64.689
  C      255.013      63.687     -64.006
  O      256.109      63.457     -64.881
  C      255.106      64.885     -63.070
  O      256.426      65.158     -62.624
  C      254.443      65.979     -63.901
  N      255.245      69.881     -60.747
  C      256.158      69.172     -61.499
  N      257.462      69.415     -61.238
  N      255.819      68.282     -62.395
  C      254.484      68.064     -62.465
  C      253.487      68.708     -61.772
  C      253.873      69.712     -60.810
  O      253.103      70.285     -60.039
  N      252.252      68.179     -62.050
  C      252.506      67.193     -62.886
  N      253.852      67.063     -63.142
  O      251.823      61.332     -66.763
  O      251.697      59.565     -64.984
  H      256.445      66.079     -62.305
  H      252.271      59.184     -65.676
  H      255.573      70.500     -60.012
  H      251.764      66.526     -63.309
  H      255.151      66.446     -64.588
  H      254.512      64.655     -62.179
  H      257.751      69.983     -60.456
  H      254.975      62.771     -63.405
  H      258.136      68.740     -61.589
  H      253.700      63.608     -65.774
  H      252.609      63.321     -62.927
  H      251.556      63.605     -64.321
  P      257.495      62.724     -64.579
  C      259.016      64.596     -65.452
  O      258.619      63.837     -64.326
  O      257.939      62.084     -65.976
  O      257.424      61.667     -63.526
  H      258.332      61.204     -65.822
  H      259.953      65.107     -65.217
  H      258.252      65.343     -65.680
  H      259.171      63.950     -66.321
  H      248.432      61.098     -63.644
  H      249.978      60.824     -62.877
  H      249.368      59.679     -64.048

 3  4  5  6  7  8  9  10  11  12  23  26  30  31 0
 6-311+G(2d,p)
 ****
 33  35  36  37  38 0
 6-311+G(2d,p)
 ****
 1  2  13  14  15  16  17  18  19  20  21  22  24  25 0
 3-21G
 ****
 27  28  29  32  34  39  40  41  42  43  44  45  46  47  48  49 0
 3-21G
 ****


