%nproc=1
%NoSave
%Mem=1900MB
#P OB98/GEN NMR

erre ene a

0 1
  C     -219.948    -847.659       7.603
  O     -221.172    -847.702       8.318
  H     -219.170    -848.126       8.212
  H     -219.672    -846.621       7.402
  H     -220.039    -848.207       6.663
  P     -222.449    -847.076       7.577
  C     -222.354    -844.794       8.837
  O     -222.242    -845.483       7.600
  C     -221.603    -843.457       8.774
  O     -222.379    -842.526       7.952
  C     -221.413    -842.782      10.147
  O     -220.207    -841.997      10.083
  C     -222.625    -841.868      10.212
  O     -222.479    -840.915      11.245
  C     -222.638    -841.365       8.775
  N     -224.800    -837.165       6.793
  C     -223.511    -837.509       6.996
  N     -223.007    -838.650       7.512
  C     -223.998    -839.500       7.825
  C     -225.363    -839.301       7.675
  C     -225.763    -838.060       7.136
  N     -227.074    -837.716       6.945
  N     -226.066    -840.408       8.121
  C     -225.151    -841.252       8.533
  N     -223.886    -840.750       8.377
  O     -223.638    -847.324       8.620
  O     -222.762    -847.654       6.235
  H     -223.309    -840.401      11.354
  H     -224.114    -848.146       8.398
  H     -222.769    -836.756       6.692
  H     -225.335    -842.235       8.942
  H     -221.838    -840.640       8.582
  H     -223.528    -842.440      10.436
  H     -221.335    -843.497      10.969
  H     -220.647    -843.603       8.259
  H     -221.918    -845.427       9.624
  H     -223.412    -844.609       9.060
  H     -227.279    -836.801       6.564
  H     -227.805    -838.369       7.207
  P     -218.864    -842.556      10.758
  C     -219.157    -841.371      13.066
  O     -219.055    -842.598      12.348
  O     -217.856    -841.329      10.569
  O     -218.295    -843.797      10.141
  H     -216.944    -841.658      10.522
  H     -219.280    -841.577      14.109
  H     -220.001    -840.818      12.710
  H     -218.266    -840.796      12.919

 6  7  8  9  10  11  12  13  14  15  25  28  32  33  34  35 0
 6-311+G(2d,p)
 ****
 36  37  40 0
 6-311+G(2d,p)
 ****
 1  2  3  4  5  16  17  18  19  20  21  22  23  24 0
 3-21G
 ****
 26  27  29  30  31  38  39 41  42  43  44  45  46  47  48 0
 3-21G
 ****


