%nproc=1
%NoSave
%Mem=1900MB
#P OB98/GEN NMR

erre ene a

0 1
  C     -101.747    -175.458     -18.426
  O     -101.801    -176.882     -18.305
  P     -101.717    -177.714     -19.679
  C      -99.449    -178.599     -20.571
  O     -100.457    -178.707     -19.577
  C      -98.103    -179.139     -20.069
  O      -97.909    -178.828     -18.653
  C      -97.952    -180.660     -20.218
  O      -96.569    -180.914     -20.507
  C      -98.270    -181.167     -18.823
  O      -97.778    -182.493     -18.620
  C      -97.595    -180.076     -17.988
  N      -96.253    -178.806     -13.290
  C      -95.517    -178.792     -14.453
  N      -94.255    -178.321     -14.370
  N      -95.981    -179.198     -15.608
  C      -97.276    -179.609     -15.555
  C      -98.112    -179.657     -14.461
  C      -97.575    -179.231     -13.182
  O      -98.183    -179.223     -12.119
  N      -99.373    -180.098     -14.806
  C      -99.260    -180.380     -16.096
  N      -98.031    -180.045     -16.605
  O     -101.251    -176.612     -20.740
  O     -103.007    -178.357     -20.072
  H      -97.764    -182.654     -17.650
  H     -102.015    -176.301     -21.261
  H      -95.837    -178.498     -12.421
  H     -100.043    -180.799     -16.709
  H      -96.502    -180.187     -17.963
  H      -99.355    -181.170     -18.657
  H      -93.850    -177.943     -13.520
  H      -98.591    -181.105     -20.987
  H      -93.706    -178.260     -15.222
  H      -97.300    -178.633     -20.625
  H      -99.325    -177.552     -20.868
  H      -99.776    -179.130     -21.472
  P      -96.224    -181.811     -21.793
  C      -96.611    -180.022     -23.628
  O      -95.674    -180.818     -22.927
  O      -97.675    -182.233     -22.335
  O      -95.385    -183.015     -21.512
  H      -97.646    -183.156     -22.657
  H      -96.106    -179.121     -23.991
  H      -97.448    -179.720     -22.990
  H      -96.996    -180.580     -24.490
  H     -101.811    -175.015     -17.454
  H     -102.565    -175.120     -19.027
  H     -100.824    -175.174     -18.888

 3  4  5  6  7  8  9  10  11  12  23  26  30  31 0
 6-311+G(2d,p)
 ****
 33  35  36  37  38 0
 6-311+G(2d,p)
 ****
 1  2  13  14  15  16  17  18  19  20  21  22  24  25 0
 3-21G
 ****
 27  28  29  32  34  39  40  41  42  43  44  45  46  47  48  49 0
 3-21G
 ****


