%nproc=1
%NoSave
%Mem=1900MB
#P OB98/GEN NMR

erre ene a

0 1
  C       64.732    -135.638    -566.602
  O       63.983    -135.317    -567.758
  P       64.131    -133.860    -568.428
  C       62.972    -134.611    -570.600
  O       62.964    -133.682    -569.521
  C       61.656    -134.550    -571.384
  O       60.585    -135.192    -570.640
  C       61.166    -133.131    -571.636
  O       61.923    -132.458    -572.632
  C       59.706    -133.395    -572.008
  O       59.600    -133.799    -573.380
  C       59.358    -134.573    -571.062
  N       58.538    -134.135    -569.924
  C       57.146    -134.281    -570.051
  O       56.671    -134.674    -571.127
  N       56.364    -133.986    -568.983
  C       56.881    -133.466    -567.919
  N       56.047    -133.228    -566.863
  C       58.320    -133.136    -567.794
  C       59.089    -133.526    -568.824
  O       65.506    -133.518    -568.908
  O       63.678    -132.861    -567.256
  H       64.354    -132.147    -567.163
  H       59.875    -133.029    -573.922
  H       58.704    -132.641    -566.914
  H       60.166    -133.353    -568.821
  H       58.803    -135.342    -571.631
  H       59.077    -132.503    -571.879
  H       61.201    -132.540    -570.699
  H       61.787    -135.086    -572.331
  H       55.079    -133.466    -566.976
  H       63.110    -135.634    -570.202
  H       56.393    -133.135    -565.906
  H       63.812    -134.390    -571.263
  P       62.068    -130.872    -572.499
  C       63.780    -131.147    -574.443
  O       62.773    -130.341    -573.849
  O       63.225    -130.689    -571.387
  O       60.814    -130.162    -572.108
  H       63.013    -129.913    -570.825
  H       63.876    -130.851    -575.495
  H       63.510    -132.212    -574.414
  H       64.729    -130.990    -573.935
  H       64.508    -136.639    -566.299
  H       64.478    -134.961    -565.813
  H       65.776    -135.556    -566.820

 3  4  5  6  7  8  9  10  11  12  13  24  27  28  29  30  32 0
 6-311+G(2d,p)
 ****
 34  35 0
 6-311+G(2d,p)
 ****
 1  2  14  15  16  17  18  19  20  21  22  23  25  26 0
 3-21G
 ****
 31  33  36  37  38  39  40  41  42  43  44  45  46 0
 3-21G
 ****


