%nproc=1
%NoSave
%Mem=1900MB
#P OB98/GEN NMR

erre ene a

0 1
  C       -6.263      49.510     101.154
  O       -6.655      48.196     100.808
  P       -6.797      47.063     101.931
  C       -5.033      45.567     100.777
  O       -5.378      46.305     101.952
  C       -4.490      44.187     101.146
  O       -3.276      44.309     101.914
  C       -5.438      43.353     101.997
  O       -6.472      42.805     101.206
  C       -4.474      42.325     102.586
  O       -4.236      41.251     101.664
  C       -3.198      43.164     102.792
  N       -3.007      43.560     104.185
  C       -2.395      42.610     105.013
  O       -2.078      41.505     104.563
  N       -2.202      42.925     106.340
  C       -2.605      44.061     106.795
  N       -2.396      44.308     108.119
  C       -3.281      45.078     105.962
  C       -3.451      44.764     104.681
  O       -7.992      46.180     101.803
  O       -6.766      47.901     103.298
  H       -5.098      40.802     101.546
  H       -7.621      48.381     103.447
  H       -3.610      46.015     106.394
  H       -3.935      45.450     103.997
  H       -2.310      42.595     102.478
  H       -4.863      41.876     103.507
  H       -5.852      43.970     102.807
  H       -4.252      43.658     100.214
  H       -1.956      43.573     108.657
  H       -4.267      46.123     100.233
  H       -2.702      45.149     108.587
  H       -5.915      45.481     100.138
  P       -8.000      42.983     101.647
  C       -8.235      40.520     102.335
  O       -8.318      41.864     102.756
  O       -8.987      43.072     100.528
  O       -7.986      44.344     102.499
  H       -8.752      44.887     102.239
  H       -8.143      39.878     103.223
  H       -7.369      40.364     101.691
  H       -9.146      40.250     101.798
  H       -6.226      50.115     100.272
  H       -5.295      49.485     101.610
  H       -6.971      49.924     101.841

 3  4  5  6  7  8  9  10  11  12  13  23  27  28  29  30  32 0
 6-311+G(2d,p)
 ****
 34  35 0
 6-311+G(2d,p)
 ****
 1  2  14  15  16  17  18  19  20  21  22  24  25  26 0
 3-21G
 ****
 31  33  36  37  38  39  40  41  42  43  44  45  46 0
 3-21G
 ****


