%nproc=1
%NoSave
%Mem=1900MB
#P OB98/GEN NMR

erre ene a

0 1
  C     -395.369     120.490     208.076
  O     -394.577     119.794     207.130
  P     -393.956     118.379     207.554
  C     -391.840     117.541     208.806
  O     -392.603     118.661     208.377
  C     -390.589     117.998     209.559
  O     -389.679     118.650     208.638
  C     -390.878     118.982     210.692
  O     -389.946     118.768     211.765
  C     -390.558     120.331     210.078
  O     -390.253     121.303     211.076
  C     -389.387     119.963     209.170
  N     -388.361     124.790     208.084
  C     -388.211     124.114     209.277
  N     -387.826     124.845     210.347
  N     -388.428     122.827     209.414
  C     -388.820     122.224     208.261
  C     -388.984     122.791     207.017
  C     -388.752     124.214     206.887
  O     -388.893     124.882     205.863
  N     -389.352     121.855     206.088
  C     -389.461     120.730     206.774
  N     -389.180     120.914     208.104
  O     -393.430     117.786     206.162
  O     -394.920     117.445     208.203
  H     -390.197     122.168     210.624
  H     -394.032     117.081     205.856
  H     -388.197     125.785     208.037
  H     -389.755     119.774     206.363
  H     -388.450     119.884     209.741
  H     -391.415     120.694     209.501
  H     -387.709     125.844     210.323
  H     -391.898     118.935     211.089
  H     -387.753     124.377     211.241
  H     -390.068     117.108     209.946
  H     -391.538     116.960     207.933
  H     -392.457     116.903     209.449
  P     -390.556     118.812     213.248
  C     -390.151     120.479     215.212
  O     -390.232     120.273     213.812
  O     -389.576     117.856     214.075
  O     -391.984     118.381     213.338
  H     -390.041     117.482     214.852
  H     -389.128     120.785     215.464
  H     -390.399     119.576     215.776
  H     -390.843     121.272     215.495
  H     -395.709     121.410     207.649
  H     -394.784     120.696     208.948
  H     -396.212     119.889     208.346

 3  4  5  6  7  8  9  10  11  12  23  26  30  31 0
 6-311+G(2d,p)
 ****
 33  35  36  37  38 0
 6-311+G(2d,p)
 ****
 1  2  13  14  15  16  17  18  19  20  21  22  24  25 0
 3-21G
 ****
 27  28  29  32  34  39  40  41  42  43  44  45  46  47  48  49 0
 3-21G
 ****


