%nproc=1
%NoSave
%Mem=1900MB
#P OB98/GEN NMR

erre ene a

0 1
  C     -369.131    -776.187     204.477
  O     -368.126    -775.425     205.147
  P     -368.620    -774.329     206.215
  C     -367.237    -775.147     208.261
  O     -368.516    -774.965     207.686
  C     -367.099    -776.577     208.821
  O     -367.170    -777.557     207.779
  C     -365.767    -776.818     209.513
  O     -365.768    -776.245     210.814
  C     -365.688    -778.348     209.517
  O     -366.297    -778.911     210.702
  C     -366.494    -778.732     208.249
  N     -365.669    -779.329     207.216
  C     -365.612    -780.730     207.190
  O     -366.240    -781.376     208.039
  N     -364.847    -781.336     206.239
  C     -364.174    -780.627     205.390
  N     -363.421    -781.290     204.475
  C     -364.173    -779.150     205.399
  C     -364.933    -778.558     206.336
  O     -370.209    -774.260     205.961
  O     -367.983    -772.989     206.065
  H     -365.690    -778.668     211.440
  H     -370.538    -773.361     206.142
  H     -363.585    -778.590     204.692
  H     -364.984    -777.474     206.412
  H     -367.278    -779.460     208.513
  H     -364.649    -778.695     209.488
  H     -364.949    -776.407     208.913
  H     -367.926    -776.748     209.528
  H     -363.438    -782.303     204.499
  H     -367.061    -774.416     209.058
  H     -362.855    -780.823     203.784
  H     -366.483    -774.959     207.491
  P     -365.160    -774.777     210.977
  C     -367.314    -773.733     211.886
  O     -366.398    -773.779     210.811
  O     -364.385    -774.570     209.576
  O     -364.253    -774.537     212.145
  H     -363.879    -773.742     209.592
  H     -367.983    -772.886     211.748
  H     -366.788    -773.603     212.838
  H     -367.908    -774.652     211.918
  H     -368.666    -776.873     203.800
  H     -369.774    -775.528     203.932
  H     -369.706    -776.731     205.197

 3  4  5  6  7  8  9  10  11  12  13  21  23  27  28  29  30  32 0
 6-311+G(2d,p)
 ****
 34  35 0
 6-311+G(2d,p)
 ****
 1  2  14  15  16  17  18  19  20  22  24  25  26 0
 3-21G
 ****
 31  33  36  37  38  39  40  41  42  43  44  45  46 0
 3-21G
 ****


