%nproc=1
%NoSave
%Mem=1900MB
#P OB98/GEN NMR

erre ene a

0 1
  C      -13.661      57.596     155.888
  O      -14.507      56.714     156.608
  H      -14.215      58.513     155.670
  H      -13.350      57.147     154.940
  H      -12.781      57.848     156.485
  P      -13.974      55.233     156.910
  C      -15.651      54.257     155.199
  O      -14.288      54.383     155.591
  C      -15.972      52.799     154.876
  O      -14.963      52.248     154.007
  C      -15.998      51.905     156.107
  O      -17.189      52.094     156.847
  C      -15.834      50.541     155.471
  O      -17.075      50.059     154.934
  C      -14.826      50.845     154.338
  N      -13.450      50.522     154.706
  C      -13.228      49.227     155.183
  O      -14.160      48.429     155.273
  N      -11.955      48.882     155.567
  C      -10.989      49.740     155.467
  N       -9.755      49.333     155.869
  C      -11.176      51.111     154.954
  C      -12.420      51.433     154.597
  O      -14.442      54.593     158.182
  O      -12.379      55.390     156.870
  H      -16.875      49.183     154.549
  H      -12.036      55.612     157.755
  H      -10.343      51.793     154.885
  H      -12.645      52.420     154.205
  H      -15.080      50.281     153.433
  H      -15.477      49.803     156.187
  H      -15.118      52.096     156.731
  H      -16.931      52.767     154.341
  H       -9.676      48.391     156.223
  H      -15.793      54.882     154.312
  H       -8.916      49.883     155.748
  H      -16.316      54.622     155.991
  P      -17.215      51.856     158.431
  C      -17.567      49.314     158.125
  O      -16.715      50.341     158.641
  O      -18.494      52.208     159.111
  O      -15.960      52.712     158.947
  H      -16.155      53.684     158.929
  H      -17.132      48.357     158.323
  H      -17.681      49.442     157.069
  H      -18.525      49.375     158.597

 6  7  8  9  10  11  12  13  14  15  16  26  30  31  32  33  35 0
 6-311+G(2d,p)
 ****
 37  38 0
 6-311+G(2d,p)
 ****
 1  2  3  4  5  17  18  19  20  21  22  23  24  25 0
 3-21G
 ****
 27  28  29  34  36  39  40  41  42  43  44  45  46 0
 3-21G
 ****


