%nproc=1
%NoSave
%Mem=1900MB
#P OB98/GEN NMR

erre ene a

0 1
  C     -457.109     -20.392     546.510
  O     -456.750     -20.854     547.840
  P     -455.698     -20.094     548.767
  C     -453.693     -21.702     548.546
  O     -454.207     -20.394     548.292
  C     -452.444     -22.008     547.720
  O     -451.301     -21.222     548.214
  C     -452.017     -23.487     547.738
  O     -451.542     -23.796     546.413
  C     -450.882     -23.488     548.751
  O     -450.008     -24.624     548.639
  C     -450.205     -22.133     548.377
  N     -449.251     -21.666     549.339
  C     -447.878     -21.752     549.016
  O     -447.485     -22.284     547.985
  N     -446.936     -21.262     549.890
  C     -447.337     -20.721     551.015
  N     -446.366     -20.211     551.837
  C     -448.770     -20.587     551.420
  C     -449.642     -21.069     550.537
  O     -455.896     -20.344     550.230
  O     -455.903     -18.517     548.442
  H     -455.777     -18.017     549.266
  H     -449.208     -24.426     549.142
  H     -449.044     -20.133     552.351
  H     -450.704     -21.021     550.740
  H     -449.722     -22.252     547.393
  H     -451.292     -23.472     549.740
  H     -452.811     -24.179     547.997
  H     -452.609     -21.659     546.695
  H     -445.401     -20.294     551.544
  H     -454.474     -22.442     548.304
  H     -446.561     -19.761     552.736
  H     -453.487     -21.782     549.613
  P     -452.537     -24.461     545.346
  C     -452.276     -27.026     545.742
  O     -453.056     -25.861     545.952
  O     -451.547     -24.948     544.190
  O     -453.581     -23.549     544.765
  H     -452.032     -24.993     543.332
  H     -452.196     -27.573     546.669
  H     -451.252     -26.790     545.385
  H     -452.768     -27.662     545.009
  H     -457.828     -21.059     546.083
  H     -456.235     -20.367     545.893
  H     -457.528     -19.409     546.575

 3  4  5  6  7  8  9  10  11  12  13  24  27  28  29  30  32 0
 6-311+G(2d,p)
 ****
 34  35 0
 6-311+G(2d,p)
 ****
 1  2  14  15  16  17  18  19  20  21  22  23  25  26 0
 3-21G
 ****
 31  33  36  37  38  39  40  41  42  43  44  45  46 0
 3-21G
 ****


