%nproc=1
%NoSave
%Mem=1900MB
#P OB98/GEN NMR

erre ene a

0 1
  C     -205.547     -89.249     -69.169
  O     -204.252     -89.819     -69.242
  P     -203.488     -90.125     -67.861
  C     -202.277     -87.830     -68.076
  O     -203.035     -88.708     -67.261
  C     -201.282     -87.033     -67.226
  O     -202.026     -86.095     -66.405
  C     -200.424     -87.879     -66.280
  O     -199.155     -87.219     -66.163
  C     -201.169     -87.785     -64.961
  O     -200.341     -88.076     -63.839
  C     -201.676     -86.349     -65.024
  N     -203.467     -83.943     -60.949
  C     -202.181     -83.985     -61.462
  N     -201.261     -83.230     -60.825
  N     -201.833     -84.699     -62.498
  C     -202.867     -85.391     -63.039
  C     -204.167     -85.464     -62.600
  C     -204.547     -84.641     -61.474
  O     -205.690     -84.507     -61.044
  N     -204.903     -86.342     -63.352
  C     -204.065     -86.737     -64.294
  N     -202.831     -86.153     -64.172
  O     -202.116     -90.786     -68.353
  O     -204.227     -90.993     -66.891
  H     -200.108     -89.025     -63.877
  H     -202.180     -91.761     -68.367
  H     -203.679     -83.360     -60.156
  H     -204.294     -87.434     -65.084
  H     -200.915     -85.620     -64.724
  H     -202.001     -88.499     -64.956
  H     -201.464     -82.629     -60.038
  H     -200.285     -88.912     -66.616
  H     -200.318     -83.214     -61.199
  H     -200.647     -86.446     -67.899
  H     -202.957     -87.126     -68.567
  H     -201.754     -88.401     -68.850
  P     -197.836     -88.130     -66.131
  C     -198.059     -88.767     -63.630
  O     -198.023     -89.215     -64.969
  O     -196.731     -87.133     -65.526
  O     -197.405     -88.659     -67.459
  H     -195.860     -87.348     -65.904
  H     -198.575     -89.513     -63.022
  H     -198.589     -87.812     -63.536
  H     -197.038     -88.650     -63.257
  H     -205.928     -89.103     -70.158
  H     -205.494     -88.307     -68.664
  H     -206.196     -89.907     -68.630

 3  4  5  6  7  8  9  10  11  12  23  26  30  31 0
 6-311+G(2d,p)
 ****
 33  35  36  37  38 0
 6-311+G(2d,p)
 ****
 1  2  13  14  15  16  17  18  19  20  21  22  24  25 0
 3-21G
 ****
 27  28  29  32  34  39  40  41  42  43  44  45  46  47  48  49 0
 3-21G
 ****


