%nproc=1
%NoSave
%Mem=1900MB
#P OB98/GEN NMR

erre ene a

0 1
  C     -158.364     436.383     240.719
  O     -158.933     436.120     242.009
  P     -158.576     434.772     242.805
  C     -160.376     433.013     242.359
  O     -159.098     433.510     241.961
  C     -160.765     431.704     241.650
  O     -159.820     430.642     241.934
  C     -162.159     431.164     242.001
  O     -162.649     430.543     240.813
  C     -161.847     430.136     243.077
  O     -162.911     429.203     243.266
  C     -160.541     429.544     242.527
  N     -159.760     428.889     243.579
  C     -159.826     427.488     243.640
  O     -160.577     426.868     242.880
  N     -159.092     426.835     244.591
  C     -158.424     427.520     245.467
  N     -157.746     426.806     246.410
  C     -158.380     428.985     245.503
  C     -159.053     429.598     244.527
  O     -158.980     434.773     244.242
  O     -156.976     434.664     242.664
  H     -163.682     429.689     243.638
  H     -156.615     434.208     243.452
  H     -157.836     429.526     246.261
  H     -159.085     430.686     244.448
  H     -160.741     428.811     241.730
  H     -161.669     430.639     244.040
  H     -162.858     431.934     242.356
  H     -160.701     431.893     240.570
  H     -157.811     425.792     246.380
  H     -161.136     433.772     242.144
  H     -157.282     427.234     247.204
  H     -160.375     432.857     243.444
  P     -163.809     431.187     239.915
  C     -165.764     430.053     241.156
  O     -165.118     431.271     240.850
  O     -164.036     430.529     238.603
  O     -163.372     432.722     239.730
  H     -163.876     433.097     238.979
  H     -166.488     430.207     241.947
  H     -165.028     429.289     241.491
  H     -166.263     429.672     240.264
  H     -158.722     437.324     240.356
  H     -158.648     435.607     240.039
  H     -157.297     436.414     240.799

 3  4  5  6  7  8  9  10  11  12  13  23  27  28  29  30  32 0
 6-311+G(2d,p)
 ****
 34  35 0
 6-311+G(2d,p)
 ****
 1  2  14  15  16  17  18  19  20  21  22  24  25  26 0
 3-21G
 ****
 31  33  36  37  38  39  40  41  42  43  44  45  46 0
 3-21G
 ****


