%nproc=1
%NoSave
%Mem=1900MB
#P OB98/GEN NMR

erre ene a

0 1
  C     -207.631    -123.656    -335.180
  O     -206.770    -124.778    -335.237
  H     -208.312    -123.783    -334.336
  H     -208.216    -123.580    -336.099
  H     -207.042    -122.747    -335.031
  P     -205.708    -124.811    -336.440
  C     -206.507    -126.892    -337.737
  O     -205.564    -126.372    -336.800
  C     -206.810    -128.361    -337.420
  O     -207.658    -128.415    -336.245
  C     -207.532    -129.090    -338.554
  O     -207.045    -130.431    -338.640
  C     -208.982    -129.102    -338.099
  O     -209.721    -130.186    -338.670
  C     -208.834    -129.183    -336.579
  N     -213.691    -130.114    -335.335
  C     -212.741    -130.888    -335.894
  N     -211.455    -130.564    -336.180
  C     -211.186    -129.308    -335.771
  C     -212.054    -128.403    -335.193
  C     -213.377    -128.846    -334.975
  N     -214.359    -128.058    -334.426
  N     -211.416    -127.196    -334.961
  C     -210.178    -127.384    -335.385
  N     -209.998    -128.637    -335.903
  O     -204.426    -124.092    -336.188
  O     -206.580    -124.253    -337.659
  H     -210.634    -130.146    -338.315
  H     -207.470    -124.656    -337.673
  H     -213.042    -131.897    -336.160
  H     -209.384    -126.641    -335.352
  H     -208.696    -130.208    -336.215
  H     -209.469    -128.166    -338.394
  H     -207.416    -128.589    -339.514
  H     -205.873    -128.869    -337.155
  H     -206.113    -126.818    -338.755
  H     -215.272    -128.459    -334.297
  H     -214.134    -127.116    -334.133
  H     -207.415    -126.295    -337.665
  P     -207.032    -131.144    -340.073
  C     -207.293    -133.474    -338.983
  O     -206.537    -132.670    -339.885
  O     -206.363    -130.390    -341.174
  O     -208.597    -131.334    -340.378
  H     -208.751    -131.194    -341.334
  H     -206.872    -134.457    -338.943
  H     -208.306    -133.534    -339.322
  H     -207.268    -133.035    -338.007

 6  7  8  9  10  11  12  13  14  15  25  28  32  33  34  35 0
 6-311+G(2d,p)
 ****
 36  39  40 0
 6-311+G(2d,p)
 ****
 1  2  3  4  5  16  17  18  19  20  21  22  23  24 0
 3-21G
 ****
 26  27  29  30  31  37  38  41  42  43  44  45  46  47 0
 3-21G
 ****
 48 0
 3-21G
 ****


