%nproc=1
%NoSave
%Mem=1900MB
#P OB98/GEN NMR

erre ene a

0 1
  C     -897.830    -533.371    -818.064
  O     -898.980    -533.909    -817.446
  P     -898.760    -534.844    -816.156
  C     -898.620    -532.726    -814.645
  O     -897.990    -533.940    -815.067
  C     -898.480    -532.528    -813.145
  O     -899.100    -533.643    -812.467
  C     -897.030    -532.439    -812.645
  O     -896.990    -531.470    -811.588
  C     -896.760    -533.803    -812.079
  O     -895.710    -533.774    -811.106
  C     -898.150    -534.189    -811.540
  N     -898.300    -535.636    -811.387
  C     -897.830    -536.210    -810.206
  O     -897.230    -535.514    -809.389
  N     -898.000    -537.557    -810.004
  C     -898.490    -538.286    -810.956
  N     -898.640    -539.624    -810.723
  C     -898.880    -537.734    -812.278
  C     -898.800    -536.417    -812.410
  O     -897.640    -535.865    -816.646
  O     -900.000    -535.544    -815.675
  H     -895.960    -533.092    -810.427
  H     -897.750    -536.739    -816.218
  H     -899.270    -538.395    -813.051
  H     -899.090    -535.923    -813.325
  H     -898.320    -533.716    -810.556
  H     -896.460    -534.488    -812.873
  H     -896.330    -532.133    -813.436
  H     -899.030    -531.625    -812.863
  H     -898.330    -539.969    -809.824
  H     -899.680    -532.775    -814.891
  H     -899.010    -540.272    -811.395
  H     -898.160    -531.892    -815.195
  P     -895.820    -530.372    -811.628
  C     -897.500    -528.423    -811.516
  O     -896.510    -529.066    -812.283
  O     -894.920    -530.903    -812.855
  O     -895.000    -530.160    -810.396
  H     -894.130    -530.341    -812.939
  H     -897.770    -527.497    -812.000
  H     -897.130    -528.204    -810.513
  H     -898.390    -529.071    -811.437
  H     -898.122    -532.774    -818.903
  H     -897.198    -534.168    -818.396
  H     -897.299    -532.764    -817.361

 3  4  5  6  7  8  9  10  11  12  13  21  23  27  28  29  30  32 0
 6-311+G(2d,p)
 ****
 34  35 0
 6-311+G(2d,p)
 ****
 1  2  14  15  16  17  18  19  20  22  24  25  26 0
 3-21G
 ****
 31  33  36  37  38  39  40  41  42  43  44  45  46 0
 3-21G
 ****


