%nproc=1
%NoSave
%Mem=1900MB
#P OB98/GEN NMR

erre ene a

0 1
  C      466.825    -257.240    -233.609
  O      467.468    -257.463    -234.849
  H      465.872    -257.778    -233.576
  H      467.468    -257.615    -232.807
  H      466.656    -256.170    -233.457
  P      466.696    -256.954    -236.158
  C      468.164    -254.873    -236.655
  O      466.907    -255.364    -236.213
  C      467.966    -253.648    -237.547
  O      467.239    -254.013    -238.735
  C      467.172    -252.519    -236.905
  O      467.971    -251.737    -236.032
  C      466.758    -251.728    -238.137
  O      467.860    -250.914    -238.585
  C      466.479    -252.846    -239.154
  N      462.488    -253.371    -242.312
  C      463.783    -253.065    -242.538
  N      464.793    -252.963    -241.651
  C      464.356    -253.236    -240.408
  C      463.073    -253.587    -240.021
  C      462.103    -253.643    -241.039
  N      460.764    -253.891    -240.779
  N      463.004    -253.777    -238.655
  C      464.227    -253.526    -238.224
  N      465.078    -253.204    -239.246
  O      465.154    -257.121    -235.749
  O      467.019    -257.693    -237.414
  H      468.477    -251.512    -239.044
  H      464.820    -257.965    -236.105
  H      464.043    -252.870    -243.574
  H      464.536    -253.564    -237.187
  H      466.822    -252.586    -240.162
  H      465.913    -251.057    -237.959
  H      466.271    -252.892    -236.401
  H      468.959    -253.296    -237.856
  H      468.682    -255.656    -237.226
  H      460.138    -253.461    -241.452
  H      460.508    -253.823    -239.805
  H      468.766    -254.612    -235.779
  P      467.245    -251.008    -234.799
  C      467.830    -252.464    -232.744
  O      466.871    -252.160    -233.747
  O      465.830    -250.589    -235.426
  O      467.961    -249.826    -234.246
  H      465.700    -249.625    -235.324
  H      467.454    -253.244    -232.116
  H      468.019    -251.591    -232.155
  H      468.740    -252.786    -233.206

 6  7  8  9  10  11  12  13  14  15  25  28  32  33  34  35 0
 6-311+G(2d,p)
 ****
 36  39  40 0
 6-311+G(2d,p)
 ****
 1  2  3  4  5  16  17  18  19  20  21  22  23  24 0
 3-21G
 ****
 26  27  29  30  31  37  38  41  42  43  44  45  46  47  48 0
 3-21G
 ****


