%nproc=1
%NoSave
%Mem=1900MB
#P OB98/GEN NMR

erre ene a

0 1
  C      415.222    -896.924    -698.366
  O      415.100    -895.984    -697.310
  H      416.269    -897.294    -698.385
  H      414.996    -896.474    -699.323
  H      414.555    -897.774    -698.171
  P      413.711    -895.224    -697.130
  C      413.123    -895.114    -694.613
  O      413.012    -895.834    -695.835
  C      413.724    -896.004    -693.515
  O      415.067    -896.424    -693.903
  C      413.841    -895.284    -692.128
  O      413.746    -896.294    -691.131
  C      415.283    -894.764    -692.201
  O      415.757    -894.344    -690.965
  C      415.984    -895.974    -692.875
  N      417.288    -895.594    -693.417
  C      418.394    -895.894    -692.607
  O      418.231    -896.444    -691.509
  N      419.659    -895.604    -693.069
  C      419.772    -894.954    -694.208
  N      421.045    -894.664    -694.582
  C      418.642    -894.564    -695.069
  C      417.415    -894.914    -694.596
  O      412.844    -895.154    -698.350
  O      414.146    -893.744    -696.646
  H      415.868    -895.114    -690.358
  H      414.048    -893.104    -697.376
  H      418.815    -894.024    -695.977
  H      416.532    -894.654    -695.159
  H      416.113    -896.784    -692.159
  H      415.349    -893.874    -692.868
  H      413.104    -894.504    -691.993
  H      413.135    -896.904    -693.422
  H      421.800    -894.934    -693.972
  H      412.107    -894.784    -694.325
  H      421.260    -894.144    -695.433
  H      413.767    -894.234    -694.756
  P      412.305    -896.794    -690.583
  C      412.413    -899.284    -691.289
  O      411.798    -897.994    -691.510
  O      411.300    -895.714    -690.417
  O      412.623    -897.484    -689.167
  H      411.862    -897.404    -688.591
  H      411.993    -900.000    -691.965
  H      412.233    -899.597    -690.282
  H      413.467    -899.210    -691.457

 6  7  8  9  10  11  12  13  14  15  16  26  30  31  32  33  35 0
 6-311+G(2d,p)
 ****
 37  38 0
 6-311+G(2d,p)
 ****
 1  2  3  4  5  17  18  19  20  21  22  23  24  25 0
 3-21G
 ****
 27  28  29  34  36  39  40  41  42  43  44  45  46 0
 3-21G
 ****


