%nproc=1
%NoSave
%Mem=1900MB
#P OB98/GEN NMR

erre ene a

0 1
  C      660.261    -255.804    -233.268
  O      659.385    -256.347    -232.294
  H      660.213    -256.417    -234.166
  H      661.289    -255.797    -232.894
  H      659.958    -254.782    -233.525
  P      659.277    -255.613    -230.875
  C      660.422    -257.604    -229.682
  O      660.459    -256.213    -229.978
  C      661.499    -257.965    -228.671
  O      662.802    -257.789    -229.260
  C      661.465    -257.121    -227.404
  O      660.483    -257.604    -226.510
  C      662.883    -257.330    -226.900
  O      663.000    -258.628    -226.287
  C      663.686    -257.281    -228.218
  N      667.615    -254.076    -228.252
  C      667.506    -255.342    -227.705
  N      668.592    -255.798    -227.023
  N      666.433    -256.081    -227.787
  C      665.417    -255.468    -228.427
  C      665.399    -254.210    -228.999
  C      666.614    -253.434    -228.941
  O      666.755    -252.306    -229.435
  N      664.157    -253.899    -229.497
  C      663.434    -254.985    -229.267
  N      664.158    -255.955    -228.607
  O      657.939    -255.654    -230.203
  O      659.759    -254.116    -231.177
  H      663.913    -258.691    -225.956
  H      659.004    -253.537    -231.383
  H      668.473    -253.550    -228.130
  H      662.401    -255.115    -229.556
  H      664.573    -257.937    -228.186
  H      663.191    -256.588    -226.159
  H      669.313    -255.178    -226.697
  H      661.326    -256.049    -227.627
  H      668.512    -256.704    -226.579
  H      661.394    -259.031    -228.438
  H      660.574    -258.147    -230.616
  H      659.433    -257.876    -229.281
  P      660.123    -256.806    -225.154
  C      660.663    -259.018    -223.905
  O      660.888    -257.613    -223.996
  O      658.672    -256.603    -224.914
  O      660.968    -255.455    -225.253
  H      660.489    -254.723    -225.717
  H      661.234    -259.419    -223.094
  H      660.963    -259.487    -224.819
  H      659.623    -259.202    -223.734

 6  7  8  9  10  11  12  13  14  15  26  29  33  34 0
 6-311+G(2d,p)
 ****
 36  38  39  40  41 0
 6-311+G(2d,p)
 ****
 1  2  3  4  5  16  17  18  19  20  21  22  23  24  25 0
 3-21G
 ****
 27  28  30  31  32  35  37  42  43  44  45  46  47 0
 3-21G
 ****
 48  49 0
 3-21G
 ****


