%nproc=1
%NoSave
%Mem=1900MB
#P OB98/GEN NMR

erre ene a

0 1
  C     -192.866     205.974    -420.192
  O     -191.895     206.402    -419.242
  P     -190.347     206.264    -419.649
  C     -189.491     205.797    -417.241
  O     -189.699     205.285    -418.553
  C     -188.133     205.351    -416.702
  O     -188.232     204.029    -416.137
  C     -187.031     205.269    -417.747
  O     -186.451     206.539    -418.013
  C     -186.034     204.366    -417.046
  O     -185.279     205.125    -416.082
  C     -186.955     203.367    -416.333
  N     -184.593     199.499    -418.699
  C     -184.117     200.620    -418.115
  N     -184.812     201.607    -417.514
  C     -186.134     201.372    -417.593
  C     -186.764     200.294    -418.191
  C     -185.935     199.313    -418.760
  N     -186.419     198.160    -419.335
  N     -188.133     200.406    -418.072
  C     -188.328     201.525    -417.405
  N     -187.149     202.139    -417.080
  O     -189.743     207.700    -419.266
  O     -190.099     205.911    -421.076
  H     -184.700     204.490    -415.610
  H     -188.935     207.869    -419.787
  H     -183.039     200.727    -418.121
  H     -189.294     201.919    -417.128
  H     -186.578     203.093    -415.338
  H     -185.310     203.916    -417.734
  H     -187.389     204.782    -418.665
  H     -187.849     206.039    -415.894
  H     -190.276     205.424    -416.584
  H     -185.760     197.429    -419.545
  H     -187.398     197.934    -419.196
  H     -189.547     206.892    -417.272
  P     -185.917     206.788    -419.509
  C     -183.989     205.146    -420.105
  O     -185.387     205.368    -420.016
  O     -184.580     207.643    -419.276
  O     -186.890     207.490    -420.395
  H     -184.381     208.187    -420.055
  H     -183.806     204.075    -420.158
  H     -183.467     205.552    -419.230
  H     -183.603     205.617    -421.015
  H     -193.847     206.123    -419.791
  H     -192.722     204.936    -420.406
  H     -192.759     206.542    -421.092

 3  4  5  6  7  8  9  10  11  12  22  25  29  30  31  32 0
 6-311+G(2d,p)
 ****
 33  36  37 0
 6-311+G(2d,p)
 ****
 1  2  13  14  15  16  17  18  19  20  21  23  24  26 0
 3-21G
 ****
 27  28  34  35  38  39  40  41  42  43  44  45  46  47  48 0
 3-21G
 ****


