%nproc=1
%NoSave
%Mem=1900MB
#P OB98/GEN NMR

erre ene a

0 1
  C      -58.680     269.952    -201.718
  O      -57.778     270.159    -202.818
  P      -57.160     268.882    -203.573
  C      -55.248     268.764    -201.790
  O      -56.235     268.073    -202.541
  C      -54.699     267.860    -200.682
  O      -55.646     267.757    -199.595
  C      -54.437     266.425    -201.118
  O      -53.245     266.309    -201.873
  C      -54.372     265.711    -199.771
  O      -53.069     265.845    -199.179
  C      -55.425     266.483    -198.951
  N      -56.672     265.741    -198.793
  C      -56.611     264.587    -198.022
  O      -55.569     264.155    -197.535
  N      -57.794     263.918    -197.854
  C      -58.990     264.246    -198.427
  O      -60.011     263.595    -198.253
  C      -58.974     265.429    -199.298
  C      -57.834     266.107    -199.443
  O      -56.066     269.560    -204.532
  O      -58.126     268.066    -204.367
  H      -53.136     265.485    -198.272
  H      -55.938     269.004    -205.323
  H      -57.779     263.095    -197.273
  H      -59.896     265.710    -199.790
  H      -57.807     266.985    -200.083
  H      -55.030     266.715    -197.955
  H      -54.579     264.639    -199.858
  H      -55.295     266.044    -201.683
  H      -53.780     268.317    -200.291
  H      -55.696     269.652    -201.336
  H      -54.444     269.080    -202.463
  P      -53.413     266.026    -203.446
  C      -52.336     263.644    -203.462
  O      -53.501     264.432    -203.581
  O      -51.953     266.411    -203.982
  O      -54.527     266.803    -204.064
  H      -51.258     266.199    -203.334
  H      -51.624     264.080    -202.757
  H      -51.864     263.548    -204.445
  H      -52.621     262.650    -203.108
  H      -58.995     270.899    -201.332
  H      -58.182     269.401    -200.948
  H      -59.534     269.402    -202.055

 3  4  5  6  7  8  9  10  11  12  13  23  28  29  30  31  32 0
 6-311+G(2d,p)
 ****
 33  34 0
 6-311+G(2d,p)
 ****
 1  2  14  15  16  17  18  19  20  21  22  24  25  26 0
 3-21G
 ****
 27  35  36  37  38  39  40  41  42  43  44  45 0
 3-21G
 ****


