%nproc=1
%NoSave
%Mem=1900MB
#P OB98/GEN NMR

erre ene a

0 1
  C       79.278     606.483     -28.401
  O       80.345     607.414     -28.260
  P       81.305     607.653     -29.511
  C       83.489     607.251     -28.159
  O       82.714     608.161     -28.925
  C       84.738     607.944     -27.587
  O       85.638     608.250     -28.692
  C       84.462     609.245     -26.832
  O       85.411     609.309     -25.770
  C       84.752     610.292     -27.900
  O       84.950     611.590     -27.379
  C       85.947     609.649     -28.589
  N       88.802     612.988     -31.241
  C       88.835     612.593     -29.940
  N       88.047     611.699     -29.309
  C       87.154     611.182     -30.170
  C       86.975     611.490     -31.494
  C       87.862     612.445     -32.050
  N       87.813     612.842     -33.358
  N       85.939     610.757     -32.044
  C       85.493     610.030     -31.045
  N       86.204     610.224     -29.893
  O       80.706     608.957     -30.209
  O       81.397     606.499     -30.473
  H       84.119     611.960     -27.047
  H       80.744     608.892     -31.172
  H       89.601     613.087     -29.325
  H       84.654     609.353     -31.111
  H       86.873     609.755     -28.006
  H       83.892     610.347     -28.580
  H       83.450     609.290     -26.412
  H       85.264     607.221     -26.939
  H       83.811     606.423     -28.807
  H       88.341     613.674     -33.599
  H       86.985     612.583     -33.899
  H       82.880     606.831     -27.355
  P       84.901     609.374     -24.248
  C       84.592     611.901     -23.980
  O       85.426     610.795     -23.719
  O       85.916     608.359     -23.541
  O       83.453     609.046     -24.054
  H       86.849     608.575     -23.751
  H       85.011     612.794     -23.479
  H       83.576     611.732     -23.587
  H       84.552     612.108     -25.052
  H       78.727     606.431     -27.486
  H       79.676     605.517     -28.633
  H       78.629     606.801     -29.191

 3  4  5  6  7  8  9  10  11  12  22  25  29  30  31  32 0
 6-311+G(2d,p)
 ****
 33  36  37 0
 6-311+G(2d,p)
 ****
 1  2  13  14  15  16  17  18  19  20  21  23  24  26 0
 3-21G
 ****
 27  28  34  35  38  39  40  41  42  43  44  45  46  47  48 0
 3-21G
 ****


