%nproc=1
%NoSave
%Mem=1900MB
#P OB98/GEN NMR

erre ene a

0 1
  C      108.292     693.818     824.326
  O      107.121     694.598     824.084
  P      106.262     695.159     825.312
  C      104.869     697.252     825.872
  O      105.730     696.627     824.924
  C      104.675     698.719     825.528
  O      105.875     699.487     825.809
  C      104.387     698.974     824.050
  O      103.081     698.578     823.680
  C      104.666     700.479     823.963
  O      103.533     701.229     824.423
  C      105.847     700.634     824.928
  N      107.121     700.782     824.227
  C      107.573     702.101     824.066
  O      106.898     703.041     824.455
  N      108.824     702.285     823.498
  C      109.464     701.278     823.006
  N      110.714     701.519     822.500
  C      108.933     699.888     823.000
  C      107.786     699.717     823.635
  O      106.941     695.064     826.649
  O      104.919     694.285     825.293
  H      104.758     693.932     826.179
  H      102.811     701.060     823.778
  H      109.496     699.107     822.511
  H      107.316     698.749     823.709
  H      105.705     701.501     825.569
  H      104.864     700.790     822.918
  H      105.119     698.429     823.433
  H      103.861     699.111     826.155
  H      111.051     702.472     822.541
  H      105.329     697.163     826.862
  H      111.405     700.781     822.394
  H      103.913     696.721     825.890
  P      102.868     698.094     822.167
  C      101.126     696.650     820.888
  O      101.566     697.154     822.137
  O      104.080     697.069     821.924
  O      102.873     699.181     821.145
  H      104.399     697.144     821.016
  H      100.482     695.789     821.071
  H      101.965     696.343     820.257
  H      100.552     697.424     820.372
  H      108.731     693.534     823.392
  H      108.028     692.940     824.878
  H      108.995     694.395     824.889

 3  4  5  6  7  8  9  10  11  12  13  24  27  28  29  30  32 0
 6-311+G(2d,p)
 ****
 34  35 0
 6-311+G(2d,p)
 ****
 1  2  14  15  16  17  18  19  20  21  22  23  25  26 0
 3-21G
 ****
 31  33  36  37  38  39  40  41  42  43  44  45  46 0
 3-21G
 ****


