%nproc=1
%NoSave
%Mem=1900MB
#P OB98/GEN NMR

erre ene a

0 1
  C     -209.157     629.560       2.108
  O     -209.500     628.648       3.161
  P     -211.009     628.750       3.720
  C     -210.651     630.986       5.012
  O     -211.344     630.306       3.958
  C     -211.618     631.727       5.940
  O     -212.438     630.771       6.652
  C     -210.938     632.608       6.997
  O     -211.721     633.800       7.185
  C     -211.056     631.778       8.266
  O     -210.968     632.586       9.445
  C     -212.415     631.127       8.034
  N     -214.810     629.299      12.109
  C     -214.933     630.530      11.486
  N     -215.804     631.398      12.041
  N     -214.267     630.870      10.414
  C     -213.455     629.884       9.950
  C     -213.251     628.631      10.475
  C     -213.963     628.279      11.686
  O     -213.856     627.228      12.315
  N     -212.342     627.914       9.717
  C     -212.000     628.741       8.759
  N     -212.639     629.947       8.853
  O     -210.888     628.146       5.199
  O     -212.007     628.002       2.901
  H     -210.062     632.938       9.480
  H     -211.512     627.401       5.303
  H     -215.331     629.096      12.941
  H     -211.282     628.528       7.981
  H     -213.228     631.832       8.222
  H     -210.244     631.044       8.297
  H     -216.397     631.180      12.824
  H     -209.901     632.880       6.767
  H     -215.949     632.286      11.569
  H     -212.291     632.329       5.317
  H     -209.943     631.700       4.574
  H     -210.073     630.247       5.576
  P     -211.376     635.043       6.230
  C     -209.946     636.697       7.642
  O     -209.970     635.603       6.748
  O     -212.431     636.162       6.689
  O     -211.476     634.734       4.774
  H     -212.618     636.770       5.949
  H     -210.951     636.914       8.039
  H     -209.582     637.583       7.120
  H     -209.281     636.463       8.470
  H     -208.139     629.403       1.818
  H     -209.279     630.565       2.453
  H     -209.797     629.391       1.268

 3  4  5  6  7  8  9  10  11  12  23  26  30  31  33  0
 6-311+G(2d,p)
 ****
 35  36  37  38 0
 6-311+G(2d,p)
 ****
 1  2  13  14  15  16  17  18  19  20  21  22  24  25  27  28  29 0
 3-21G
 ****
 32  34  39  40  41  42  43  44  45  46  47  48  49 0
 3-21G
 ****


