%nproc=1
%NoSave
%Mem=1900MB
#P OB98/GEN NMR

erre ene a

0 1
  C     -875.369     -37.417     113.718
  O     -874.195     -37.977     114.267
  H     -876.139     -37.387     114.490
  H     -875.724     -38.040     112.892
  H     -875.194     -36.397     113.361
  P     -872.825     -37.872     113.444
  C     -873.449     -39.884     111.956
  O     -872.518     -39.346     112.884
  C     -872.757     -40.851     110.992
  O     -871.753     -40.126     110.230
  C     -872.046     -42.022     111.689
  O     -872.100     -43.148     110.801
  C     -870.632     -41.504     111.798
  O     -869.709     -42.545     112.048
  C     -870.489     -40.778     110.457
  N     -869.371     -39.834     110.450
  C     -868.306     -40.135     109.608
  O     -868.259     -41.157     108.921
  N     -867.267     -39.252     109.613
  C     -867.166     -38.144     110.408
  O     -866.188     -37.400     110.397
  C     -868.301     -37.896     111.307
  C     -869.339     -38.735     111.286
  O     -871.686     -37.229     114.161
  O     -873.223     -37.071     112.116
  H     -869.826     -42.889     112.958
  H     -872.460     -36.555     111.795
  H     -866.491     -39.449     109.003
  H     -868.248     -37.032     111.957
  H     -870.191     -38.575     111.936
  H     -870.329     -41.495     109.645
  H     -870.542     -40.792     112.629
  H     -872.490     -42.280     112.655
  H     -873.499     -41.216     110.270
  H     -873.882     -39.045     111.391
  H     -874.249     -40.398     112.494
  P     -873.368     -44.131     110.740
  C     -871.941     -46.170     111.423
  O     -872.843     -45.629     110.463
  O     -874.446     -43.677     109.813
  O     -873.902     -44.200     112.246
  H     -874.863     -44.380     112.247
  H     -871.665     -47.162     111.133
  H     -872.415     -46.197     112.382
  H     -871.066     -45.557     111.475

 6  7  8  9  10  11  12  13  14  15  16  26  31  32  33  34  35 0
 6-311+G(2d,p)
 ****
 36  37 0
 6-311+G(2d,p)
 ****
 1  2  3  4  5  17  18  19  20  21  22  23  24  25 0
 3-21G
 ****
 27  28  29  30  38  39  40  41  42  43  44  45 0
 3-21G
 ****


