%nproc=1
%NoSave
%Mem=1900MB
#P OB98/GEN NMR

erre ene a

0 1
  C     -339.848    -252.990     110.725
  O     -340.355    -253.280     112.013
  H     -339.534    -251.940     110.701
  H     -340.633    -253.138     109.978
  H     -338.987    -253.620     110.485
  P     -340.583    -254.810     112.427
  C     -340.249    -256.243     114.548
  O     -340.087    -254.969     113.943
  C     -339.268    -256.428     115.716
  O     -337.910    -256.398     115.196
  C     -339.377    -255.281     116.731
  O     -339.009    -255.686     118.045
  C     -338.356    -254.273     116.214
  O     -337.899    -253.377     117.220
  C     -337.270    -255.204     115.667
  N     -332.845    -253.041     114.327
  C     -333.323    -253.340     115.589
  N     -332.517    -253.027     116.629
  N     -334.493    -253.878     115.812
  C     -335.224    -254.074     114.685
  C     -334.873    -253.793     113.385
  C     -333.558    -253.231     113.144
  O     -333.097    -252.923     112.052
  N     -335.883    -254.123     112.511
  C     -336.840    -254.589     113.270
  N     -336.489    -254.603     114.602
  O     -339.449    -255.596     111.608
  O     -341.949    -255.359     112.142
  H     -337.323    -252.719     116.790
  H     -339.700    -256.532     111.497
  H     -331.922    -252.653     114.208
  H     -337.804    -254.939     112.925
  H     -336.573    -255.491     116.478
  H     -338.831    -253.671     115.430
  H     -331.700    -252.437     116.512
  H     -340.374    -254.837     116.759
  H     -332.966    -252.950     117.551
  H     -339.410    -257.411     116.179
  H     -340.070    -256.994     113.769
  H     -341.277    -256.376     114.886
  P     -340.072    -255.509     119.232
  C     -340.189    -257.351     121.128
  O     -339.545    -256.240     120.554
  O     -341.316    -256.396     118.765
  O     -340.468    -254.081     119.494
  H     -342.099    -255.833     118.613
  H     -339.653    -257.662     122.000
  H     -340.215    -258.153     120.420
  H     -341.188    -257.083     121.400

 6  7  8  9  10  11  12  13  14  15  26  29  33  34 0
 6-311+G(2d,p)
 ****
 36  38  39  40  41 0
 6-311+G(2d,p)
 ****
 1  2  3  4  5  16  17  18  19  20  21  22  23  24  25 0
 3-21G
 ****
 27  28  30  31  32  35  37  42  43  44  45  46  47 0
 3-21G
 ****
 48  49 0
 3-21G
 ****


