%nproc=1
%NoSave
%Mem=1900MB
#P OB98/GEN NMR

erre ene a

0 1
  C      374.750     293.375     258.646
  O      374.602     293.162     260.035
  H      375.057     294.413     258.481
  H      373.795     293.205     258.143
  H      375.516     292.711     258.234
  P      374.352     291.648     260.510
  C      371.930     292.325     261.157
  O      372.764     291.407     260.463
  C      370.460     291.955     260.956
  O      370.099     292.061     259.558
  C      370.105     290.533     261.384
  O      369.880     290.438     262.779
  C      368.820     290.318     260.601
  O      367.730     291.006     261.258
  C      369.142     290.999     259.266
  N      369.277     289.791     254.344
  C      368.547     290.764     254.993
  N      367.730     291.523     254.236
  N      368.613     290.982     256.286
  C      369.463     290.139     256.924
  C      370.235     289.137     256.388
  C      370.163     288.916     254.956
  O      370.804     288.084     254.321
  N      370.984     288.507     257.347
  C      370.646     289.106     258.466
  N      369.717     290.109     258.271
  O      374.670     291.692     262.082
  O      375.185     290.616     259.820
  H      367.703     290.669     262.174
  H      375.095     290.847     262.338
  H      369.181     289.660     253.348
  H      371.040     288.866     259.445
  H      368.264     291.464     258.807
  H      368.540     289.267     260.533
  H      367.591     291.384     253.245
  H      370.866     289.807     261.041
  H      367.207     292.267     254.688
  H      369.848     292.688     261.506
  H      372.106     293.334     260.770
  H      372.183     292.299     262.224
  P      370.242     289.048     263.507
  C      367.882     288.139     262.920
  O      369.293     287.948     262.828
  O      369.621     289.228     264.975
  O      371.703     288.725     263.552
  H      370.075     288.635     265.599
  H      367.380     287.333     262.426
  H      367.616     289.065     262.453
  H      367.592     288.162     263.950

 6  7  8  9  10  11  12  13  14  15  26  29  33  34 0
 6-311+G(2d,p)
 ****
 36  38  39  40  41 0
 6-311+G(2d,p)
 ****
 1  2  3  4  5  16  17  18  19  20  21  22  23  24  25 0
 3-21G
 ****
 27  28  30  31  32  35  37  42  43  44  45  46  47 0
 3-21G
 ****
 48  49 0
 3-21G
 ****


