%nproc=1
%NoSave
%Mem=1900MB
#P OB98/GEN NMR

erre ene a

0 1
  C      260.074     708.198     133.111
  O      259.648     709.547     133.102
  H      260.909     708.070     132.417
  H      260.418     707.943     134.118
  H      259.254     707.531     132.836
  P      258.832     710.051     131.814
  C      261.044     710.305     130.479
  O      259.753     709.724     130.532
  C      261.589     710.256     129.048
  O      261.742     708.868     128.661
  C      260.694     710.948     128.009
  O      261.532     711.630     127.061
  C      260.007     709.784     127.314
  O      259.589     710.107     125.987
  C      261.091     708.723     127.375
  N      258.986     705.534     124.021
  C      259.710     706.664     123.859
  N      260.278     707.427     124.809
  C      260.110     706.875     126.033
  C      259.408     705.724     126.349
  C      258.808     705.043     125.277
  N      258.026     703.933     125.432
  N      259.415     705.527     127.720
  C      260.090     706.541     128.216
  N      260.527     707.392     127.227
  O      258.932     711.644     131.947
  O      257.417     709.582     131.724
  H      259.320     709.274     125.538
  H      258.199     711.973     132.498
  H      259.827     707.010     122.835
  H      260.252     706.739     129.257
  H      261.854     708.840     126.590
  H      259.126     709.480     127.895
  H      259.975     711.655     128.441
  H      262.597     710.703     129.052
  H      261.722     709.742     131.140
  H      257.540     703.570     124.618
  H      257.790     703.624     126.368
  H      260.995     711.341     130.835
  P      261.704     713.215     127.230
  C      260.627     714.096     125.027
  O      260.514     713.946     126.432
  O      262.994     713.538     126.343
  O      261.878     713.659     128.649
  H      263.495     714.282     126.734
  H      259.760     714.598     124.651
  H      260.707     713.132     124.571
  H      261.500     714.672     124.799

 6  7  8  9  10  11  12  13  14  15  25  28  32  33  34  35 0
 6-311+G(2d,p)
 ****
 36  39  40 0
 6-311+G(2d,p)
 ****
 1  2  3  4  5  16  17  18  19  20  21  22  23  24 0
 3-21G
 ****
 26  27  29  30  31  37  38  41  42  43  44  45  46  47 0
 3-21G
 ****
 48 0
 3-21G
 ****


