%nproc=1
%NoSave
%Mem=1900MB
#P OB98/GEN NMR

erre ene a

0 1
  C      788.762    -892.020     308.583
  O      788.230    -892.770     307.507
  H      788.105    -892.140     309.440
  H      788.807    -890.960     308.310
  H      789.775    -892.380     308.848
  P      789.094    -892.910     306.155
  C      789.491    -894.790     304.423
  O      789.102    -894.470     305.756
  C      789.787    -896.290     304.314
  O      791.045    -896.610     304.955
  C      788.760    -897.160     305.039
  O      787.555    -897.270     304.275
  C      789.528    -898.470     305.179
  O      789.493    -899.220     303.966
  C      790.959    -897.950     305.482
  N      791.301    -897.980     306.906
  C      792.355    -898.800     307.277
  O      792.990    -899.480     306.456
  N      792.659    -898.820     308.608
  C      791.948    -898.210     309.600
  O      792.218    -898.320     310.801
  C      790.811    -897.380     309.152
  C      790.542    -897.310     307.873
  O      790.437    -892.250     306.172
  O      788.137    -892.270     305.042
  H      788.563    -899.480     303.830
  H      788.473    -891.370     304.813
  H      793.418    -899.410     308.900
  H      790.223    -896.880     309.924
  H      789.709    -896.700     307.515
  H      791.698    -898.550     304.944
  H      789.128    -899.100     305.961
  H      788.546    -896.760     306.038
  H      789.859    -896.570     303.264
  H      790.413    -894.220     304.194
  H      788.692    -894.490     303.730
  P      786.286    -897.990     304.910
  C      783.815    -898.380     304.290
  O      785.040    -897.760     303.923
  O      786.021    -897.700     306.355
  O      786.607    -899.560     304.718
  H      786.638    -900.000     305.570
  H      783.068    -898.154     303.558
  H      783.502    -898.013     305.245
  H      783.953    -899.440     304.343

 6  7  8  9  10  11  12  13  14  15  16  26  31  32  33  34  35 0
 6-311+G(2d,p)
 ****
 36  37 0
 6-311+G(2d,p)
 ****
 1  2  3  4  5  17  18  19  20  21  22  23  24  25 0
 3-21G
 ****
 27  28  29  30  38  39  40  41  42  43  44  45 0
 3-21G
 ****


