%nproc=1
%NoSave
%Mem=1900MB
#P OB98/GEN NMR

erre ene a

0 1
  C      138.289    -201.297      44.784
  O      138.611    -200.597      45.990
  P      139.955    -201.023      46.756
  C      141.161    -200.261      48.935
  O      139.935    -200.373      48.220
  C      140.955    -199.437      50.208
  O      140.524    -198.096      49.895
  C      139.879    -199.999      51.121
  O      140.369    -201.105      51.847
  C      139.532    -198.790      51.984
  O      140.348    -198.732      53.167
  C      139.828    -197.594      51.052
  N      138.629    -196.863      50.674
  C      138.262    -195.814      51.518
  O      138.925    -195.563      52.527
  N      137.138    -195.088      51.210
  C      136.429    -195.406      50.165
  N      135.324    -194.655      49.918
  C      136.771    -196.522      49.265
  C      137.870    -197.205      49.576
  O      141.088    -200.188      45.994
  O      140.230    -202.494      46.719
  H      140.065    -199.482      53.719
  H      141.923    -200.692      45.981
  H      136.146    -196.757      48.416
  H      138.197    -198.046      48.969
  H      140.510    -196.890      51.543
  H      138.490    -198.829      52.323
  H      138.999    -200.291      50.527
  H      141.912    -199.380      50.749
  H      135.119    -193.896      50.553
  H      141.925    -199.796      48.307
  H      134.699    -194.816      49.139
  H      141.521    -201.270      49.175
  P      139.974    -202.567      51.349
  C      140.265    -204.936      52.304
  O      140.333    -203.548      52.568
  O      141.147    -202.897      50.300
  O      138.622    -202.744      50.736
  H      140.967    -203.739      49.849
  H      140.734    -205.474      53.139
  H      140.802    -205.177      51.384
  H      139.221    -205.250      52.223
  H      137.374    -200.913      44.382
  H      138.176    -202.340      44.996
  H      139.076    -201.161      44.072

 3  4  5  6  7  8  9  10  11  12  13  21  23  27  28  29  30  32 0
 6-311+G(2d,p)
 ****
 34  35 0
 6-311+G(2d,p)
 ****
 1  2  14  15  16  17  18  19  20  22  24  25  26 0
 3-21G
 ****
 31  33  36  37  38  39  40  41  42  43  44  45  46 0
 3-21G
 ****


