%nproc=1
%NoSave
%Mem=1900MB
#P OB98/GEN NMR

erre ene a

0 1
  C     -141.170    -586.200    -961.172
  O     -140.055    -586.565    -960.382
  H     -142.002    -586.890    -960.995
  H     -141.481    -585.192    -960.894
  H     -140.893    -586.211    -962.232
  P     -139.511    -588.062    -960.565
  C     -137.172    -587.514    -961.545
  O     -137.911    -587.989    -960.425
  C     -136.174    -586.448    -961.099
  O     -136.875    -585.318    -960.537
  C     -135.199    -586.895    -960.016
  O     -134.139    -587.676    -960.550
  C     -134.709    -585.552    -959.507
  O     -133.694    -585.037    -960.389
  C     -135.972    -584.680    -959.594
  N     -135.612    -582.909    -954.786
  C     -134.735    -582.921    -955.813
  N     -134.889    -583.417    -957.052
  C     -136.119    -583.937    -957.211
  C     -137.118    -583.999    -956.252
  C     -136.829    -583.467    -954.989
  N     -137.728    -583.482    -953.943
  N     -138.255    -584.595    -956.772
  C     -137.939    -584.887    -958.018
  N     -136.658    -584.514    -958.328
  O     -139.735    -588.355    -962.124
  O     -140.183    -589.095    -959.718
  H     -133.056    -585.762    -960.531
  H     -139.984    -589.294    -962.240
  H     -133.770    -582.455    -955.610
  H     -138.609    -585.358    -958.734
  H     -135.741    -583.685    -959.995
  H     -134.274    -585.606    -958.510
  H     -135.723    -587.425    -959.209
  H     -135.638    -586.105    -961.990
  H     -137.862    -587.077    -962.276
  H     -137.540    -582.915    -953.136
  H     -138.645    -583.886    -954.111
  H     -136.650    -588.357    -962.006
  P     -133.517    -588.824    -959.611
  C     -135.390    -590.526    -960.215
  O     -134.001    -590.216    -960.249
  O     -134.401    -588.714    -958.276
  O     -132.057    -588.691    -959.328
  H     -133.890    -589.052    -957.512
  H     -135.554    -591.478    -960.674
  H     -135.936    -589.775    -960.746
  H     -135.724    -590.558    -959.199

 6  7  8  9  10  11  12  13  14  15  25  28  32  33  34  35 0
 6-311+G(2d,p)
 ****
 36  39  40 0
 6-311+G(2d,p)
 ****
 1  2  3  4  5  16  17  18  19  20  21  22  23  24 0
 3-21G
 ****
 26  27  29  30  31  37  38  41  42  43  44  45  46  47  48 0
 3-21G
 ****


