%nproc=1
%NoSave
%Mem=1900MB
#P OB98/GEN NMR

erre ene a

0 1
  C     -108.426      20.649     -15.302
  O     -107.786      20.119     -16.451
  P     -106.651      21.010     -17.160
  C     -108.185      21.766     -19.126
  O     -107.413      22.147     -17.998
  C     -108.956      22.968     -19.678
  O     -109.735      23.550     -18.601
  C     -108.080      24.085     -20.259
  O     -108.821      24.684     -21.329
  C     -107.966      25.065     -19.106
  O     -107.619      26.377     -19.532
  C     -109.355      24.940     -18.491
  N     -110.974      28.432     -15.204
  C     -111.069      28.402     -16.584
  N     -111.745      29.422     -17.159
  N     -110.554      27.461     -17.331
  C     -109.922      26.502     -16.613
  C     -109.729      26.437     -15.252
  C     -110.337      27.465     -14.436
  O     -110.352      27.483     -13.208
  N     -108.960      25.357     -14.904
  C     -108.762      24.727     -16.043
  N     -109.363      25.354     -17.100
  O     -106.080      20.029     -18.286
  O     -105.579      21.533     -16.254
  H     -107.396      26.903     -18.735
  H     -105.295      19.543     -17.963
  H     -111.409      29.173     -14.681
  H     -108.199      23.811     -16.163
  H     -110.105      25.544     -19.021
  H     -107.192      24.725     -18.405
  H     -112.195      30.164     -16.644
  H     -107.105      23.735     -20.616
  H     -111.859      29.409     -18.166
  H     -109.664      22.604     -20.434
  H     -108.905      20.999     -18.819
  H     -107.529      21.339     -19.892
  P     -108.002      25.232     -22.594
  C     -107.927      27.595     -21.536
  O     -107.199      26.536     -22.123
  O     -109.155      25.828     -23.534
  O     -107.205      24.196     -23.322
  H     -108.901      25.727     -24.471
  H     -107.242      28.195     -20.927
  H     -108.734      27.226     -20.896
  H     -108.347      28.228     -22.322
  H     -109.152      19.949     -14.943
  H     -108.912      21.568     -15.556
  H     -107.697      20.830     -14.539

 3  4  5  6  7  8  9  10  11  12  23  26  30  31 0
 6-311+G(2d,p)
 ****
 33  35  36  37  38 0
 6-311+G(2d,p)
 ****
 1  2  13  14  15  16  17  18  19  20  21  22  24  25 0
 3-21G
 ****
 27  28  29  32  34  39  40  41  42  43  44  45  46  47  48  49 0
 3-21G
 ****


