%nproc=1
%NoSave
%Mem=1900MB
#P OB98/GEN NMR

erre ene a

0 1
  C     -453.931     -79.602     -63.850
  O     -454.774     -79.643     -65.000
  P     -456.308     -80.063     -64.787
  C     -457.241     -77.865     -65.818
  O     -457.216     -79.280     -65.866
  C     -458.024     -77.283     -67.003
  O     -457.255     -77.392     -68.234
  C     -459.370     -77.971     -67.253
  O     -460.274     -77.014     -67.804
  C     -459.032     -78.995     -68.322
  O     -460.194     -79.454     -69.008
  C     -458.040     -78.181     -69.162
  N     -457.283     -79.991     -73.818
  C     -458.290     -79.178     -73.332
  N     -459.212     -78.757     -74.225
  N     -458.382     -78.809     -72.084
  C     -457.368     -79.276     -71.313
  C     -456.320     -80.098     -71.667
  C     -456.241     -80.508     -73.059
  O     -455.381     -81.241     -73.540
  N     -455.511     -80.372     -70.593
  C     -456.072     -79.734     -69.593
  N     -457.178     -79.023     -69.970
  O     -456.685     -79.351     -63.408
  O     -456.530     -81.539     -64.717
  H     -459.890     -79.943     -69.812
  H     -456.774     -80.015     -62.701
  H     -457.263     -80.254     -74.792
  H     -455.728     -79.749     -68.563
  H     -458.553     -77.487     -69.851
  H     -458.533     -79.864     -67.869
  H     -459.167     -78.960     -75.216
  H     -459.824     -78.430     -66.362
  H     -459.932     -78.123     -73.903
  H     -458.189     -76.210     -66.824
  H     -456.219     -77.471     -65.835
  H     -457.674     -77.549     -64.863
  P     -461.621     -76.724     -66.980
  C     -460.998     -74.239     -66.515
  O     -461.896     -75.148     -67.112
  O     -461.165     -76.892     -65.455
  O     -462.777     -77.608     -67.324
  H     -461.936     -77.128     -64.895
  H     -460.365     -73.809     -67.285
  H     -460.364     -74.728     -65.755
  H     -461.562     -73.445     -66.030
  H     -452.944     -79.309     -64.141
  H     -453.896     -80.571     -63.399
  H     -454.320     -78.895     -63.147

 3  4  5  6  7  8  9  10  11  12  23  26  30  31 0
 6-311+G(2d,p)
 ****
 33  35  36  37  38 0
 6-311+G(2d,p)
 ****
 1  2  13  14  15  16  17  18  19  20  21  22  24  25 0
 3-21G
 ****
 27  28  29  32  34  39  40  41  42  43  44  45  46  47  48  49 0
 3-21G
 ****


