%nproc=1
%NoSave
%Mem=1900MB
#P OB98/GEN NMR

erre ene a

0 1
  C     -256.933    -165.824     -98.317
  O     -256.674    -167.207     -98.446
  H     -257.199    -165.424     -99.299
  H     -256.043    -165.304     -97.954
  H     -257.767    -165.660     -97.630
  P     -256.207    -167.983     -97.121
  C     -257.346    -170.219     -97.793
  O     -256.132    -169.539     -97.503
  C     -257.037    -171.623     -98.300
  O     -256.547    -171.559     -99.657
  C     -255.952    -172.344     -97.511
  O     -256.440    -172.874     -96.291
  C     -255.546    -173.423     -98.501
  O     -256.420    -174.560     -98.429
  C     -255.687    -172.700     -99.857
  N     -254.394    -172.321    -100.415
  C     -253.615    -173.369    -100.899
  O     -253.976    -174.546    -100.865
  N     -252.387    -173.023    -101.388
  C     -251.855    -171.765    -101.408
  O     -250.718    -171.533    -101.795
  C     -252.730    -170.695    -100.897
  C     -253.936    -171.019    -100.424
  O     -257.492    -167.884     -96.171
  O     -254.980    -167.437     -96.471
  H     -257.349    -167.201     -95.491
  H     -256.322    -174.925     -97.529
  H     -251.802    -173.770    -101.733
  H     -252.342    -169.685    -100.904
  H     -254.590    -170.249    -100.023
  H     -256.193    -173.349    -100.585
  H     -254.538    -173.787     -98.304
  H     -255.098    -171.678     -97.343
  H     -257.968    -172.205     -98.298
  H     -257.895    -169.672     -98.565
  H     -257.958    -170.256     -96.885
  P     -255.650    -172.530     -94.938
  C     -257.811    -172.527     -93.445
  O     -256.546    -173.092     -93.729
  O     -255.842    -170.944     -94.860
  O     -254.233    -172.994     -94.934
  H     -256.708    -170.651     -95.191
  H     -258.249    -173.034     -92.611
  H     -258.447    -172.630     -94.299
  H     -257.694    -171.490     -93.210

 6  7  8  9  10  11  12  13  14  15  16  27  31  32  33  34  35 0
 6-311+G(2d,p)
 ****
 36  37 0
 6-311+G(2d,p)
 ****
 1  2  3  4  5  17  18  19  20  21  22  23  24  25 0
 3-21G
 ****
 26  28  29  30  38  39  40  41  42  43  44  45 0
 3-21G
 ****


