%nproc=1
%NoSave
%Mem=1900MB
#P OB98/GEN NMR

erre ene a

0 1
  C     -219.120     613.331    -407.708
  O     -219.535     611.984    -407.854
  H     -219.786     613.858    -407.018
  H     -218.107     613.339    -407.295
  H     -219.112     613.831    -408.680
  P     -220.997     611.753    -408.474
  C     -221.769     610.785    -406.193
  O     -222.016     611.724    -407.234
  C     -222.655     611.103    -404.986
  O     -222.715     609.959    -404.103
  C     -222.165     612.263    -404.124
  O     -222.514     613.520    -404.688
  C     -222.935     612.003    -402.835
  O     -224.291     612.465    -402.979
  C     -222.909     610.465    -402.751
  N     -221.640     609.048    -397.999
  C     -222.806     609.444    -398.539
  N     -223.075     609.790    -399.819
  C     -221.971     609.668    -400.578
  C     -220.715     609.253    -400.174
  C     -220.557     608.937    -398.811
  N     -219.330     608.598    -398.256
  N     -219.829     609.275    -401.240
  C     -220.538     609.709    -402.255
  N     -221.840     609.958    -401.911
  O     -220.936     610.223    -408.960
  O     -221.367     612.671    -409.594
  H     -224.787     612.110    -402.214
  H     -220.733     610.195    -409.915
  H     -223.650     609.509    -397.851
  H     -220.160     609.865    -403.259
  H     -223.857     610.054    -402.386
  H     -222.505     612.514    -401.967
  H     -221.093     612.193    -403.921
  H     -223.675     611.291    -405.357
  H     -220.720     610.844    -405.894
  H     -219.247     608.846    -397.278
  H     -218.534     608.790    -398.855
  H     -221.982     609.781    -406.564
  P     -221.450     614.717    -404.561
  C     -222.838     615.763    -402.642
  O     -221.567     615.272    -403.055
  O     -222.108     615.878    -405.444
  O     -220.070     614.397    -405.029
  H     -221.477     616.164    -406.138
  H     -222.778     616.099    -401.628
  H     -223.564     614.981    -402.716
  H     -223.127     616.579    -403.271

 6  7  8  9  10  11  12  13  14  15  25  28  32  33  34  35 0
 6-311+G(2d,p)
 ****
 36  39  40 0
 6-311+G(2d,p)
 ****
 1  2  3  4  5  16  17  18  19  20  21  22  23  24 0
 3-21G
 ****
 26  27  29  30  31  37  38  41  42  43  44  45  46  47  48 0
 3-21G
 ****


