%nproc=1
%NoSave
%Mem=1900MB
#P OB98/GEN NMR

erre ene a

0 1
  C      -52.421    -305.760      24.031
  O      -52.458    -304.409      24.440
  H      -53.346    -305.987      23.497
  H      -52.346    -306.421      24.897
  H      -51.577    -305.931      23.356
  P      -51.239    -303.833      25.306
  C      -51.808    -305.205      27.418
  O      -50.861    -304.959      26.383
  C      -51.155    -305.997      28.555
  O      -50.226    -305.112      29.232
  C      -52.181    -306.500      29.586
  O      -52.077    -307.899      29.833
  C      -51.988    -305.546      30.758
  O      -52.355    -306.085      32.013
  C      -50.516    -305.140      30.641
  N      -50.210    -303.849      31.255
  C      -50.513    -303.694      32.606
  O      -51.003    -304.563      33.324
  N      -50.217    -302.469      33.142
  C      -49.682    -301.405      32.474
  O      -49.437    -300.331      33.010
  C      -49.411    -301.619      31.043
  C      -49.684    -302.811      30.510
  O      -51.444    -302.468      25.875
  O      -49.996    -303.868      24.297
  H      -52.056    -305.450      32.697
  H      -49.797    -302.962      23.994
  H      -50.416    -302.347      34.123
  H      -48.996    -300.796      30.482
  H      -49.493    -303.005      29.456
  H      -49.872    -305.887      31.108
  H      -52.616    -304.663      30.594
  H      -53.203    -306.387      29.203
  H      -50.574    -306.821      28.127
  H      -52.637    -305.775      26.985
  H      -52.189    -304.252      27.800
  P      -52.975    -309.022      29.148
  C      -54.085    -309.860      31.381
  O      -54.244    -309.302      30.084
  O      -52.249    -310.215      28.626
  O      -53.630    -308.263      27.883
  H      -53.743    -308.944      27.184
  H      -55.044    -309.969      31.843
  H      -53.474    -309.213      31.975
  H      -53.617    -310.819      31.302

 6  7  8  9  10  11  12  13  14  15  16  26  31  32  33  34  35 0
 6-311+G(2d,p)
 ****
 36  37 0
 6-311+G(2d,p)
 ****
 1  2  3  4  5  17  18  19  20  21  22  23  24  25 0
 3-21G
 ****
 27  28  29  30  38  39  40  41  42  43  44  45 0
 3-21G
 ****


