%nproc=1
%NoSave
%Mem=1900MB
#P OB98/GEN NMR

erre ene a

0 1
  C      355.996     358.302     375.220
  O      354.721     358.714     375.699
  P      354.314     360.254     375.487
  C      354.133     362.349     377.024
  O      354.452     360.961     376.929
  C      353.420     362.659     378.338
  O      352.111     362.042     378.323
  C      354.160     362.174     379.588
  O      353.969     363.147     380.614
  C      353.423     360.908     379.963
  O      353.570     360.600     381.349
  C      351.989     361.251     379.522
  N      351.180     360.054     379.298
  C      350.925     359.246     380.411
  O      351.444     359.510     381.497
  N      350.139     358.131     380.256
  C      349.731     357.793     379.071
  N      348.949     356.690     378.969
  C      350.077     358.555     377.848
  C      350.780     359.672     378.039
  O      352.731     360.178     375.264
  O      355.014     360.933     374.361
  H      353.185     359.714     381.509
  H      352.432     360.881     374.660
  H      349.743     358.206     376.883
  H      351.064     360.303     377.210
  H      351.489     361.871     380.282
  H      353.806     360.057     379.380
  H      355.230     362.027     379.414
  H      353.259     363.751     378.390
  H      348.736     356.177     379.814
  H      353.469     362.613     376.200
  H      348.591     356.347     378.085
  H      355.050     362.935     376.933
  P      355.116     363.290     381.728
  C      355.234     362.832     384.255
  O      354.465     362.711     383.077
  O      355.083     364.874     382.014
  O      356.490     362.829     381.386
  H      355.792     365.106     382.643
  H      354.621     362.528     385.106
  H      355.556     363.868     384.399
  H      356.106     362.170     384.196
  H      356.135     357.261     375.426
  H      356.761     358.868     375.710
  H      356.051     358.467     374.164

 3  4  5  6  7  8  9  10  11  12  13  21  23  27  28  29  30  32 0
 6-311+G(2d,p)
 ****
 34  35 0
 6-311+G(2d,p)
 ****
 1  2  14  15  16  17  18  19  20  22  24  25  26 0
 3-21G
 ****
 31  33  36  37  38  39  40  41  42  43  44  45  46 0
 3-21G
 ****


