%nproc=1
%NoSave
%Mem=1900MB
#P OB98/GEN NMR

erre ene a

0 1
  C       43.909      78.051     149.739
  O       44.859      77.714     150.733
  H       43.093      77.323     149.773
  H       44.365      78.016     148.745
  H       43.498      79.047     149.926
  P       46.161      78.634     150.879
  C       46.655      77.814     153.278
  O       46.323      78.921     152.449
  C       46.321      78.131     154.733
  O       44.913      78.392     154.880
  C       46.660      77.003     155.705
  O       48.043      77.021     156.024
  C       45.767      77.377     156.879
  O       46.355      78.470     157.608
  C       44.489      77.841     156.160
  N       40.690      75.119     158.128
  C       41.496      76.077     158.720
  N       41.285      76.308     160.032
  N       42.436      76.728     158.084
  C       42.576      76.342     156.794
  C       41.854      75.396     156.104
  C       40.781      74.720     156.802
  O       40.030      73.878     156.312
  N       42.331      75.228     154.828
  C       43.314      76.099     154.735
  N       43.517      76.791     155.908
  O       46.199      79.871     150.031
  O       47.375      77.644     150.556
  H       46.637      79.128     156.946
  H       47.615      77.676     149.611
  H       39.996      74.638     158.677
  H       43.912      76.270     153.848
  H       43.971      78.640     156.706
  H       45.620      76.557     157.584
  H       40.788      75.646     160.618
  H       46.341      76.027     155.323
  H       41.896      76.966     160.494
  H       46.851      79.055     155.005
  H       47.726      77.623     153.163
  H       46.102      76.921     152.960
  P       48.952      75.707     155.851
  C       51.167      76.640     154.901
  O       49.914      76.034     154.610
  O       48.189      74.431     155.727
  O       49.955      75.747     157.091
  H       49.602      75.299     157.899
  H       51.705      76.802     153.990
  H       51.734      75.997     155.540
  H       51.005      77.577     155.391

 6  7  8  9  10  11  12  13  14  15  26  29  33  34 0
 6-311+G(2d,p)
 ****
 36  38  39  40  41 0
 6-311+G(2d,p)
 ****
 1  2  3  4  5  16  17  18  19  20  21  22  23  24  25 0
 3-21G
 ****
 27  28  30  31  32  35  37  42  43  44  45  46  47 0
 3-21G
 ****
 48  49 0
 3-21G
 ****


