%nproc=1
%NoSave
%Mem=1900MB
#P OB98/GEN NMR

erre ene a

0 1
  C     -430.061      96.958    -448.570
  O     -429.618      95.758    -449.168
  H     -429.482      97.788    -448.986
  H     -429.893      96.925    -447.491
  H     -431.118      97.130    -448.779
  P     -430.416      94.401    -448.857
  C     -431.053      94.065    -451.333
  O     -431.528      94.240    -450.003
  C     -431.941      94.843    -452.304
  O     -431.834      96.259    -452.044
  C     -431.554      94.665    -453.768
  O     -431.963      93.403    -454.265
  C     -432.247      95.861    -454.392
  O     -433.635      95.592    -454.633
  C     -432.085      96.939    -453.299
  N     -431.009      97.881    -453.611
  C     -431.396      99.087    -454.184
  O     -432.569      99.386    -454.415
  N     -430.380      99.931    -454.542
  C     -429.048      99.628    -454.513
  O     -428.189     100.307    -455.069
  C     -428.697      98.366    -453.844
  C     -429.677      97.558    -453.441
  O     -430.914      94.252    -447.460
  O     -429.357      93.254    -449.227
  H     -428.966      92.904    -448.404
  H     -433.662      95.077    -455.469
  H     -430.650     100.791    -454.996
  H     -427.646      98.124    -453.733
  H     -429.442      96.606    -452.970
  H     -433.017      97.502    -453.172
  H     -431.791      96.134    -455.346
  H     -430.472      94.782    -453.879
  H     -432.984      94.542    -452.135
  H     -431.090      92.998    -451.581
  H     -430.020      94.412    -451.392
  P     -430.909      92.441    -454.987
  C     -431.335      90.015    -454.249
  O     -430.593      91.209    -454.009
  O     -429.701      93.124    -455.544
  O     -431.758      91.749    -456.158
  H     -431.264      91.837    -456.999
  H     -431.044      89.266    -453.542
  H     -431.137      89.666    -455.241
  H     -432.380      90.218    -454.144

 6  7  8  9  10  11  12  13  14  15  16  27  31  32  33  34  35 0
 6-311+G(2d,p)
 ****
 36  37 0
 6-311+G(2d,p)
 ****
 1  2  3  4  5  17  18  19  20  21  22  23  24  25 0
 3-21G
 ****
 26  28  29  30  38  39  40  41  42  43  44  45 0
 3-21G
 ****


