%nproc=1
%NoSave
%Mem=1900MB
#P OB98/GEN NMR

erre ene a

0 1
  C       32.099      79.049     -84.782
  O       31.574      79.558     -85.990
  H       32.367      79.885     -84.134
  H       32.996      78.460     -84.986
  H       31.356      78.429     -84.270
  P       30.897      78.512     -86.998
  C       28.467      78.104     -86.170
  O       29.326      78.849     -87.020
  C       27.021      78.239     -86.646
  O       26.233      77.173     -86.042
  C       26.358      79.570     -86.266
  O       25.481      79.959     -87.328
  C       25.530      79.204     -85.047
  O       24.441      80.084     -84.805
  C       25.088      77.783     -85.413
  N       24.653      77.013     -84.250
  C       23.534      76.202     -84.402
  O       22.936      76.021     -85.462
  N       23.099      75.576     -83.260
  C       23.643      75.699     -82.017
  O       23.195      75.126     -81.031
  C       24.818      76.575     -81.918
  C       25.261      77.185     -83.021
  O       30.969      77.134     -86.187
  O       31.530      78.416     -88.347
  H       31.804      76.668     -86.379
  H       23.830      80.010     -85.565
  H       22.288      74.985     -83.355
  H       25.269      76.706     -80.944
  H       26.111      77.856     -82.979
  H       24.284      77.815     -86.156
  H       26.165      79.197     -84.153
  H       27.065      80.378     -86.054
  H       26.991      78.082     -87.731
  H       28.541      78.490     -85.149
  H       28.775      77.055     -86.176
  P       25.896      81.246     -88.192
  C       27.737      79.976     -89.560
  O       26.499      80.669     -89.562
  O       27.176      81.762     -87.383
  O       24.793      82.237     -88.333
  H       27.705      81.036     -87.006
  H       27.975      79.668     -90.557
  H       27.663      79.115     -88.929
  H       28.507      80.622     -89.192

 6  7  8  9  10  11  12  13  14  15  16  27  31  32  33  34  35 0
 6-311+G(2d,p)
 ****
 36  37 0
 6-311+G(2d,p)
 ****
 1  2  3  4  5  17  18  19  20  21  22  23  24  25 0
 3-21G
 ****
 26  28  29  30  38  39  40  41  42  43  44  45 0
 3-21G
 ****


