%nproc=1
%NoSave
%Mem=1900MB
#P OB98/GEN NMR

erre ene a

0 1
  C      672.016    -899.330    -155.092
  O      673.056    -899.400    -156.043
  H      671.069    -899.650    -155.539
  H      672.263    -900.000    -154.257
  H      671.915    -898.320    -154.701
  P      672.874    -898.480    -157.358
  C      675.305    -897.620    -157.002
  O      673.935    -897.280    -157.232
  C      676.203    -896.430    -157.270
  O      675.859    -895.900    -158.592
  C      676.045    -895.270    -156.280
  O      677.336    -894.860    -155.785
  C      675.446    -894.120    -157.068
  O      675.910    -892.860    -156.657
  C      675.887    -894.470    -158.506
  N      675.061    -890.280    -161.271
  C      676.177    -890.750    -160.680
  N      676.354    -891.910    -160.018
  C      675.227    -892.660    -160.067
  C      674.016    -892.340    -160.663
  C      673.955    -891.060    -161.279
  N      672.802    -890.570    -161.835
  N      673.079    -893.350    -160.513
  C      673.725    -894.260    -159.767
  N      675.014    -893.880    -159.482
  O      671.455    -897.770    -157.099
  O      672.885    -899.240    -158.636
  H      675.644    -892.730    -155.724
  H      670.846    -898.020    -157.823
  H      677.036    -890.080    -160.718
  H      673.284    -895.180    -159.402
  H      676.915    -894.140    -158.711
  H      674.361    -894.170    -156.956
  H      675.393    -895.550    -155.416
  H      677.221    -896.780    -157.311
  H      675.585    -898.460    -157.669
  H      672.792    -889.600    -162.157
  H      671.940    -891.090    -161.745
  H      675.402    -897.950    -155.961
  P      677.647    -895.190    -154.254
  C      680.229    -895.460    -154.437
  O      678.987    -896.120    -154.181
  O      676.498    -896.210    -153.811
  O      677.671    -893.980    -153.350
  H      675.985    -895.850    -153.067
  H      681.030    -896.165    -154.362
  H      680.373    -894.679    -153.720
  H      680.214    -895.041    -155.422

 6  7  8  9  10  11  12  13  14  15  25  28  32  33  34  35 0
 6-311+G(2d,p)
 ****
 36  39  40 0
 6-311+G(2d,p)
 ****
 1  2  3  4  5  16  17  18  19  20  21  22  23  24 0
 3-21G
 ****
 26  27  29  30  31  37  38  41  42  43  44  45  46  47  48 0
 3-21G
 ****


