%nproc=1
%NoSave
%Mem=1900MB
#P OB98/GEN NMR

erre ene a

0 1
  C     -370.011    -505.371    -898.580
  O     -369.142    -506.322    -898.000
  P     -367.807    -506.723    -898.800
  C     -365.546    -507.861    -898.190
  O     -366.758    -507.282    -897.710
  C     -364.644    -508.215    -897.010
  O     -364.120    -507.035    -896.380
  C     -365.362    -508.970    -895.890
  O     -365.489    -510.370    -896.150
  C     -364.389    -508.778    -894.710
  O     -363.288    -509.682    -894.820
  C     -363.901    -507.313    -894.980
  N     -363.439    -503.118    -892.160
  C     -362.514    -503.736    -893.000
  N     -361.277    -503.214    -893.030
  N     -362.774    -504.789    -893.730
  C     -364.063    -505.232    -893.590
  C     -365.064    -504.686    -892.780
  C     -364.773    -503.530    -892.000
  O     -365.496    -502.954    -891.200
  N     -366.246    -505.408    -892.930
  C     -365.942    -506.386    -893.760
  N     -364.643    -506.317    -894.160
  O     -367.173    -505.289    -899.200
  O     -368.021    -507.581    -900.000
  H     -363.586    -510.512    -894.420
  H     -366.538    -505.408    -899.920
  H     -363.177    -502.320    -891.630
  H     -366.650    -507.119    -894.120
  H     -362.814    -507.196    -894.770
  H     -364.845    -508.922    -893.750
  H     -361.002    -502.417    -892.440
  H     -366.324    -508.516    -895.620
  H     -360.551    -503.670    -893.580
  H     -363.786    -508.834    -897.380
  H     -365.026    -507.147    -898.840
  H     -365.775    -508.752    -898.770
  P     -366.194    -511.257    -895.030
  C     -367.579    -513.470    -895.120
  O     -366.979    -512.434    -895.840
  O     -367.393    -510.312    -894.500
  O     -365.303    -511.688    -893.940
  H     -367.630    -510.548    -893.590
  H     -368.244    -514.029    -895.800
  H     -368.167    -513.082    -894.260
  H     -366.820    -514.170    -894.760
  H     -370.848    -505.211    -897.933
  H     -370.356    -505.733    -899.526
  H     -369.487    -504.449    -898.721

 3  4  5  6  7  8  9  10  11  12  23  26  30  31 0
 6-311+G(2d,p)
 ****
 33  35  36  37  38 0
 6-311+G(2d,p)
 ****
 1  2  13  14  15  16  17  18  19  20  21  22  24  25 0
 3-21G
 ****
 27  28  29  32  34  39  40  41  42  43  44  45  46  47  48  49 0
 3-21G
 ****


