%nproc=1
%NoSave
%Mem=1900MB
#P OB98/GEN NMR

erre ene a

0 1
  C      137.633      34.496      39.617
  O      138.710      33.813      40.259
  P      139.446      34.534      41.486
  C      141.852      33.673      41.128
  O      140.687      33.624      41.944
  C      142.796      32.505      41.462
  O      143.076      32.522      42.887
  C      142.229      31.113      41.167
  O      142.437      30.559      39.870
  C      143.031      30.252      42.141
  O      144.311      29.928      41.565
  C      143.230      31.163      43.348
  N      142.773      30.358      48.380
  C      143.846      30.607      47.598
  N      143.883      30.808      46.266
  C      142.649      30.749      45.741
  C      141.462      30.507      46.412
  C      141.552      30.301      47.798
  N      140.461      30.036      48.593
  N      140.397      30.511      45.536
  C      140.936      30.733      44.354
  N      142.292      30.897      44.426
  O      138.562      35.015      42.587
  O      140.181      35.768      40.769
  H      144.796      29.417      42.239
  H      140.147      36.543      41.363
  H      144.805      30.647      48.111
  H      140.387      30.782      43.425
  H      144.236      31.076      43.775
  H      142.538      29.301      42.362
  H      141.164      31.063      41.420
  H      143.743      32.645      40.927
  H      142.371      34.622      41.288
  H      140.617      29.858      49.571
  H      139.551      29.933      48.168
  H      141.526      33.663      40.088
  P      141.216      30.302      38.866
  C      143.005      28.850      37.627
  O      141.871      29.686      37.541
  O      140.332      31.478      38.632
  O      140.483      29.043      39.525
  H      140.994      28.217      39.487
  H      143.160      28.369      36.658
  H      142.861      28.078      38.386
  H      143.887      29.450      37.869
  H      137.249      33.890      38.824
  H      137.986      35.424      39.218
  H      136.857      34.687      40.328

 3  4  5  6  7  8  9  10  11  12  22  25  29  30  31  32 0
 6-311+G(2d,p)
 ****
 33  36  37 0
 6-311+G(2d,p)
 ****
 1  2  13  14  15  16  17  18  19  20  21  23  24  26 0
 3-21G
 ****
 27  28  34  35  38  39  40  41  42  43  44  45  46  47  48 0
 3-21G
 ****


