%nproc=1
%NoSave
%Mem=1900MB
#P OB98/GEN NMR

erre ene a

0 1
  C     -121.988    -189.917     382.184
  O     -120.941    -189.720     381.237
  P     -120.611    -190.934     380.233
  C     -118.265    -192.010     380.576
  O     -119.608    -191.899     381.046
  C     -117.385    -190.941     381.206
  O     -117.411    -191.061     382.648
  C     -115.912    -191.023     380.820
  O     -115.652    -190.411     379.568
  C     -115.276    -190.209     381.943
  O     -115.427    -188.802     381.686
  C     -116.120    -190.619     383.155
  N     -112.107    -191.944     386.042
  C     -112.376    -190.818     385.335
  N     -113.466    -190.550     384.575
  C     -114.311    -191.593     384.566
  C     -114.147    -192.812     385.204
  C     -112.986    -192.973     385.985
  N     -112.726    -194.102     386.721
  N     -115.216    -193.645     384.954
  C     -116.024    -192.938     384.187
  N     -115.523    -191.684     383.936
  O     -119.665    -190.249     379.137
  O     -121.802    -191.597     379.625
  H     -115.037    -188.328     382.454
  H     -119.698    -190.763     378.311
  H     -111.627    -190.035     385.385
  H     -116.978    -193.278     383.809
  H     -116.309    -189.779     383.834
  H     -114.198    -190.399     382.042
  H     -115.545    -192.056     380.858
  H     -117.795    -189.955     380.947
  H     -118.255    -191.875     379.485
  H     -111.968    -194.062     387.402
  H     -113.476    -194.777     386.843
  H     -117.889    -193.004     380.810
  P     -114.458    -191.031     378.690
  C     -112.347    -189.546     378.316
  O     -113.123    -190.322     379.214
  O     -114.695    -190.387     377.243
  O     -114.446    -192.532     378.647
  H     -114.317    -190.960     376.552
  H     -111.686    -188.906     378.884
  H     -112.987    -188.921     377.678
  H     -111.744    -190.214     377.681
  H     -122.098    -189.037     382.782
  H     -121.748    -190.748     382.814
  H     -122.904    -190.114     381.667

 3  4  5  6  7  8  9  10  11  12  22  25  29  30  31  32 0
 6-311+G(2d,p)
 ****
 33  36  37 0
 6-311+G(2d,p)
 ****
 1  2  13  14  15  16  17  18  19  20  21  23  24  26 0
 3-21G
 ****
 27  28  34  35  38  39  40  41  42  43  44  45  46  47  48 0
 3-21G
 ****


