%nproc=1
%NoSave
%Mem=1900MB
#P OB98/GEN NMR

erre ene a

0 1
  C     -150.766     -11.446     -49.544
  O     -149.836     -12.443     -49.924
  H     -150.637     -10.581     -50.196
  H     -150.584     -11.142     -48.512
  H     -151.790     -11.822     -49.650
  P     -149.982     -13.877     -49.209
  C     -149.502     -15.340     -51.334
  O     -149.068     -14.875     -50.068
  C     -148.955     -14.448     -52.448
  O     -147.530     -14.273     -52.245
  C     -149.161     -15.016     -53.852
  O     -149.445     -13.939     -54.744
  C     -147.812     -15.626     -54.190
  O     -147.611     -15.724     -55.599
  C     -146.852     -14.684     -53.451
  N     -145.572     -15.319     -53.150
  C     -144.829     -15.786     -54.240
  O     -145.271     -15.675     -55.384
  N     -143.628     -16.408     -54.006
  C     -143.234     -16.610     -52.789
  N     -142.045     -17.249     -52.621
  C     -144.009     -16.181     -51.606
  C     -145.151     -15.538     -51.858
  O     -151.478     -14.285     -49.609
  O     -149.715     -13.858     -47.742
  H     -147.777     -14.839     -55.990
  H     -151.706     -14.074     -50.530
  H     -143.644     -16.388     -50.610
  H     -145.778     -15.183     -51.049
  H     -146.660     -13.783     -54.051
  H     -147.746     -16.640     -53.771
  H     -149.959     -15.756     -53.909
  H     -149.413     -13.457     -52.351
  H     -141.552     -17.545     -53.456
  H     -150.595     -15.353     -51.379
  H     -141.670     -17.506     -51.722
  H     -149.142     -16.367     -51.459
  P     -150.969     -13.557     -55.051
  C     -150.832     -11.320     -56.333
  O     -151.032     -12.726     -56.426
  O     -151.735     -12.961     -53.917
  O     -151.610     -14.969     -55.482
  H     -152.513     -15.011     -55.111
  H     -150.897     -10.885     -57.308
  H     -149.865     -11.124     -55.919
  H     -151.583     -10.894     -55.701

 6  7  8  9  10  11  12  13  14  15  16  26  30  31  32  33  35 0
 6-311+G(2d,p)
 ****
 37  38 0
 6-311+G(2d,p)
 ****
 1  2  3  4  5  17  18  19  20  21  22  23  24  25 0
 3-21G
 ****
 27  28  29  34  36  39  40  41  42  43  44  45  46 0
 3-21G
 ****


