%nproc=1
%NoSave
%Mem=1900MB
#P OB98/GEN NMR

erre ene a

0 1
  C     -230.735     221.406     406.074
  O     -230.678     222.058     407.328
  P     -231.028     223.614     407.466
  C     -229.771     225.847     407.535
  O     -229.651     224.432     407.520
  C     -228.579     226.500     408.236
  O     -228.731     226.359     409.676
  C     -227.217     225.909     407.848
  O     -226.286     226.994     407.788
  C     -226.898     224.993     409.014
  O     -225.507     224.727     409.124
  C     -227.507     225.782     410.176
  N     -227.749     224.956     411.345
  C     -226.636     224.606     412.118
  O     -225.503     224.885     411.723
  N     -226.839     223.939     413.301
  C     -228.026     223.494     413.585
  N     -228.198     222.898     414.799
  C     -229.177     223.631     412.671
  C     -228.982     224.404     411.599
  O     -231.989     223.950     408.558
  O     -231.629     224.013     406.034
  H     -232.501     224.438     406.158
  H     -225.367     224.039     409.803
  H     -230.109     223.138     412.895
  H     -229.777     224.586     410.884
  H     -226.852     226.616     410.461
  H     -227.415     224.038     408.886
  H     -227.241     225.396     406.880
  H     -228.601     227.574     408.016
  H     -227.394     222.857     415.416
  H     -230.686     226.104     408.074
  H     -229.115     222.813     415.234
  H     -229.869     226.221     406.510
  P     -224.986     226.833     406.855
  C     -222.504     226.149     407.206
  O     -223.742     226.466     407.802
  O     -224.672     228.361     406.474
  O     -225.153     226.023     405.611
  H     -224.179     228.385     405.632
  H     -221.802     225.856     407.990
  H     -222.101     227.019     406.681
  H     -222.616     225.315     406.507
  H     -230.467     220.377     406.195
  H     -230.052     221.875     405.397
  H     -231.728     221.473     405.682

 3  4  5  6  7  8  9  10  11  12  13  24  27  28  29  30  32 0
 6-311+G(2d,p)
 ****
 34  35 0
 6-311+G(2d,p)
 ****
 1  2  14  15  16  17  18  19  20  21  22  23  25  26 0
 3-21G
 ****
 31  33  36  37  38  39  40  41  42  43  44  45  46 0
 3-21G
 ****


