%nproc=1
%NoSave
%Mem=1900MB
#P OB98/GEN NMR

erre ene a

0 1
  C      139.097    -894.620    -135.924
  O      137.952    -894.100    -136.581
  P      136.979    -895.130    -137.331
  C      135.110    -894.970    -135.524
  O      136.040    -895.790    -136.207
  C      133.677    -895.360    -135.888
  O      133.502    -895.190    -137.319
  C      133.310    -896.820    -135.558
  O      131.914    -896.830    -135.233
  C      133.521    -897.530    -136.884
  O      132.802    -898.760    -136.971
  C      133.071    -896.460    -137.858
  N      132.195    -896.290    -142.841
  C      131.328    -896.120    -141.775
  N      130.051    -895.800    -142.093
  N      131.670    -896.250    -140.522
  C      132.976    -896.540    -140.361
  C      133.933    -896.760    -141.329
  C      133.547    -896.580    -142.708
  O      134.307    -896.630    -143.673
  N      135.132    -897.130    -140.775
  C      134.921    -897.050    -139.480
  N      133.652    -896.660    -139.184
  O      137.967    -896.320    -137.737
  O      136.227    -894.580    -138.501
  H      133.122    -899.240    -137.763
  H      138.305    -896.200    -138.650
  H      131.882    -896.150    -143.787
  H      135.659    -897.260    -138.714
  H      131.978    -896.430    -137.978
  H      134.593    -897.750    -137.015
  H      129.718    -895.670    -143.034
  H      133.891    -897.240    -134.748
  H      129.394    -895.650    -141.331
  H      132.985    -894.670    -135.384
  H      135.271    -893.930    -135.819
  H      135.274    -895.040    -134.440
  P      131.400    -897.930    -134.188
  C      131.201    -896.310    -132.178
  O      131.832    -897.440    -132.723
  O      132.373    -899.170    -134.466
  O      129.974    -898.330    -134.352
  H      131.901    -900.000    -134.305
  H      131.284    -896.340    -131.089
  H      130.144    -896.260    -132.448
  H      131.706    -895.410    -132.549
  H      139.644    -893.819    -135.473
  H      139.720    -895.121    -136.635
  H      138.791    -895.312    -135.168

 3  4  5  6  7  8  9  10  11  12  23  26  30  31 0
 6-311+G(2d,p)
 ****
 33  35  36  37  38 0
 6-311+G(2d,p)
 ****
 1  2  13  14  15  16  17  18  19  20  21  22  24  25 0
 3-21G
 ****
 27  28  29  32  34  39  40  41  42  43  44  45  46  47  48  49 0
 3-21G
 ****


