%nproc=1
%NoSave
%Mem=1900MB
#P OB98/GEN NMR

erre ene a

0 1
  C       21.671    -250.124    -613.271
  O       21.161    -248.890    -613.732
  H       20.848    -250.810    -613.055
  H       22.298    -250.558    -614.053
  H       22.278    -249.978    -612.373
  P       20.351    -247.998    -612.670
  C       17.986    -248.138    -611.599
  O       18.908    -248.688    -612.531
  C       16.645    -248.863    -611.682
  O       16.193    -248.852    -613.063
  C       16.712    -250.324    -611.225
  O       15.511    -250.639    -610.511
  C       16.754    -251.100    -612.527
  O       16.260    -252.430    -612.383
  C       15.908    -250.215    -613.437
  N       14.071    -251.959    -617.872
  C       13.495    -251.779    -616.663
  N       14.055    -251.300    -615.531
  C       15.337    -250.949    -615.748
  C       16.055    -251.077    -616.922
  C       15.374    -251.620    -618.025
  N       15.962    -251.841    -619.250
  N       17.356    -250.636    -616.740
  C       17.410    -250.256    -615.477
  N       16.217    -250.429    -614.842
  O       20.050    -246.662    -613.507
  O       21.061    -247.711    -611.390
  H       16.220    -252.840    -613.270
  H       20.844    -246.097    -613.510
  H       12.449    -252.061    -616.595
  H       18.290    -249.861    -614.985
  H       14.828    -250.389    -613.315
  H       17.787    -251.158    -612.895
  H       17.577    -250.533    -610.593
  H       15.905    -248.298    -611.104
  H       17.845    -247.073    -611.825
  H       15.413    -252.289    -619.964
  H       16.949    -251.652    -619.361
  H       18.399    -248.232    -610.583
  P       15.688    -251.388    -609.097
  C       15.514    -253.858    -608.343
  O       15.891    -252.958    -609.375
  O       14.223    -251.298    -608.453
  O       16.713    -250.755    -608.217
  H       14.283    -250.966    -607.535
  H       15.701    -254.863    -608.660
  H       14.472    -253.740    -608.130
  H       16.084    -253.650    -607.462

 6  7  8  9  10  11  12  13  14  15  25  28  32  33  34  35 0
 6-311+G(2d,p)
 ****
 36  39  40 0
 6-311+G(2d,p)
 ****
 1  2  3  4  5  16  17  18  19  20  21  22  23  24 0
 3-21G
 ****
 26  27  29  30  31  37  38  41  42  43  44  45  46  47 0
 3-21G
 ****
 48 0
 3-21G
 ****


