%nproc=1
%NoSave
%Mem=1900MB
#P OB98/GEN NMR

erre ene a

0 1
  C      345.667    -823.505    -140.900
  O      345.879    -822.773    -142.100
  P      347.133    -821.791    -142.260
  C      345.745    -819.804    -141.353
  O      346.553    -820.293    -142.428
  C      345.704    -818.282    -141.366
  O      346.984    -817.710    -141.014
  C      345.377    -817.698    -142.745
  O      344.009    -817.866    -143.091
  C      345.809    -816.248    -142.556
  O      344.788    -815.495    -141.872
  C      347.061    -816.416    -141.660
  N      348.302    -816.250    -142.406
  C      348.783    -814.932    -142.517
  O      348.114    -813.984    -142.117
  N      350.003    -814.729    -143.135
  C      350.608    -815.721    -143.696
  N      351.821    -815.487    -144.238
  C      350.052    -817.097    -143.707
  C      348.929    -817.285    -143.033
  O      348.146    -822.195    -143.265
  O      347.768    -821.753    -140.774
  H      348.735    -821.921    -140.854
  H      345.179    -814.626    -141.643
  H      350.558    -817.895    -144.256
  H      348.456    -818.292    -142.998
  H      347.044    -815.681    -140.833
  H      346.006    -815.735    -143.504
  H      346.011    -818.177    -143.509
  H      344.981    -817.955    -140.608
  H      352.172    -814.555    -144.183
  H      346.200    -820.118    -140.398
  H      352.508    -816.234    -144.387
  H      344.744    -820.237    -141.425
  P      343.707    -818.402    -144.583
  C      343.716    -816.211    -146.004
  O      342.947    -817.204    -145.356
  O      342.588    -819.494    -144.354
  O      344.892    -818.952    -145.301
  H      342.719    -820.237    -144.999
  H      343.062    -815.722    -146.751
  H      344.577    -816.643    -146.519
  H      344.046    -815.488    -145.257
  H      344.781    -824.098    -140.996
  H      345.554    -822.824    -140.082
  H      346.506    -824.144    -140.719

 3  4  5  6  7  8  9  10  11  12  13  24  27  28  29  30  32 0
 6-311+G(2d,p)
 ****
 34  35 0
 6-311+G(2d,p)
 ****
 1  2  14  15  16  17  18  19  20  21  22  23  25  26 0
 3-21G
 ****
 31  33  36  37  38  39  40  41  42  43  44  45  46 0
 3-21G
 ****


