%nproc=1
%NoSave
%Mem=1900MB
#P OB98/GEN NMR

erre ene a

0 1
  C      165.213    -338.633     146.742
  O      164.947    -337.251     146.884
  H      164.631    -339.204     147.469
  H      164.922    -338.943     145.736
  H      166.280    -338.830     146.879
  P      165.335    -336.588     148.293
  C      167.521    -336.392     149.679
  O      166.866    -336.986     148.569
  C      168.822    -337.128     149.977
  O      168.552    -338.511     150.279
  C      169.823    -337.148     148.826
  O      170.548    -335.931     148.737
  C      170.719    -338.301     149.250
  O      171.645    -337.854     150.258
  C      169.709    -339.284     149.861
  N      167.719    -343.979     149.449
  C      167.966    -343.195     150.519
  N      168.479    -341.947     150.550
  C      168.725    -341.509     149.303
  C      168.506    -342.183     148.114
  C      167.981    -343.481     148.214
  N      167.798    -344.302     147.111
  N      168.901    -341.414     147.036
  C      169.367    -340.305     147.569
  N      169.276    -340.313     148.935
  O      164.512    -337.479     149.342
  O      165.010    -335.138     148.424
  H      172.146    -338.640     150.546
  H      163.681    -337.021     149.567
  H      167.724    -343.628     151.485
  H      169.782    -339.476     147.012
  H      170.105    -339.781     150.753
  H      171.311    -338.710     148.426
  H      169.339    -337.401     147.877
  H      169.269    -336.675     150.872
  H      166.868    -336.441     150.558
  H      167.878    -345.291     147.324
  H      168.256    -343.977     146.267
  H      167.723    -335.342     149.445
  P      171.192    -335.550     147.318
  C      170.223    -334.832     145.030
  O      169.980    -335.492     146.266
  O      171.984    -336.883     146.917
  O      172.102    -334.367     147.329
  H      172.923    -336.673     146.752
  H      169.339    -334.866     144.428
  H      171.024    -335.321     144.516
  H      170.488    -333.812     145.216

 6  7  8  9  10  11  12  13  14  15  25  28  32  33  34  35 0
 6-311+G(2d,p)
 ****
 36  39  40 0
 6-311+G(2d,p)
 ****
 1  2  3  4  5  16  17  18  19  20  21  22  23  24 0
 3-21G
 ****
 26  27  29  30  31  37  38  41  42  43  44  45  46  47  48 0
 3-21G
 ****


