%nproc=1
%NoSave
%Mem=1900MB
#P OB98/GEN NMR

erre ene a

0 1
  C     -110.869      38.824     -56.206
  O     -110.519      37.595     -56.816
  P     -110.865      36.212     -56.090
  C     -108.749      36.165     -54.574
  O     -110.156      36.248     -54.653
  C     -108.305      35.505     -53.262
  O     -109.034      36.134     -52.179
  C     -108.610      34.014     -53.160
  O     -107.799      33.456     -52.123
  C     -110.058      34.022     -52.723
  O     -110.449      32.789     -52.127
  C     -110.121      35.259     -51.792
  N     -111.411      35.963     -51.912
  C     -112.518      35.353     -51.326
  O     -112.439      34.318     -50.665
  N     -113.729      35.926     -51.596
  C     -113.930      36.997     -52.417
  O     -115.019      37.303     -52.889
  C     -112.717      37.734     -52.807
  C     -111.528      37.177     -52.563
  O     -109.999      35.151     -56.917
  O     -112.312      35.855     -56.073
  H     -111.402      32.877     -51.890
  H     -110.551      34.723     -57.598
  H     -114.542      35.403     -51.292
  H     -112.836      38.671     -53.332
  H     -110.616      37.673     -52.886
  H     -109.987      34.977     -50.740
  H     -110.696      34.181     -53.602
  H     -108.467      33.462     -54.092
  H     -107.236      35.694     -53.104
  H     -108.323      37.169     -54.665
  H     -108.354      35.585     -55.415
  P     -107.179      31.995     -52.361
  C     -109.257      30.816     -51.419
  O     -108.424      31.001     -52.547
  O     -106.146      31.556     -51.379
  O     -106.584      32.094     -53.847
  H     -105.931      31.384     -53.988
  H     -110.270      30.588     -51.763
  H     -109.288      31.711     -50.791
  H     -108.885      29.972     -50.832
  H     -110.561      39.634     -56.833
  H     -110.382      38.902     -55.257
  H     -111.929      38.864     -56.067

 3  4  5  6  7  8  9  10  11  12  13  23  28  29  30  31  32 0
 6-311+G(2d,p)
 ****
 33  34 0
 6-311+G(2d,p)
 ****
 1  2  14  15  16  17  18  19  20  21  22  24  25  26  27 0
 3-21G
 ****
 35  36  37  38  39  40  41  42  43  44  45 0
 3-21G
 ****


