%nproc=1
%NoSave
%Mem=1900MB
#P OB98/GEN NMR

erre ene a

0 1
  C     -249.793    -407.120     268.190
  O     -250.573    -407.958     269.047
  P     -249.992    -408.231     270.521
  C     -249.149    -406.564     272.345
  O     -250.122    -406.861     271.348
  C     -249.652    -405.486     273.300
  O     -249.796    -404.219     272.620
  C     -251.028    -405.767     273.897
  O     -250.951    -406.686     274.979
  C     -251.429    -404.386     274.385
  O     -250.837    -404.127     275.670
  C     -250.813    -403.463     273.312
  N     -254.398    -400.012     272.311
  C     -253.614    -400.172     273.441
  N     -253.792    -399.266     274.431
  N     -252.733    -401.132     273.583
  C     -252.643    -401.945     272.499
  C     -253.364    -401.889     271.323
  C     -254.356    -400.836     271.191
  O     -255.094    -400.666     270.231
  N     -252.983    -402.878     270.451
  C     -252.010    -403.518     271.088
  N     -251.779    -402.995     272.337
  O     -248.413    -408.355     270.267
  O     -250.546    -409.447     271.177
  H     -250.959    -403.168     275.858
  H     -248.009    -408.913     270.954
  H     -255.063    -399.256     272.261
  H     -251.454    -404.352     270.686
  H     -250.331    -402.588     273.762
  H     -252.512    -404.275     274.510
  H     -254.401    -398.464     274.354
  H     -251.732    -406.104     273.120
  H     -253.197    -399.355     275.248
  H     -248.913    -405.366     274.105
  H     -248.226    -406.228     271.865
  H     -248.903    -407.487     272.886
  P     -252.067    -407.843     275.047
  C     -251.976    -410.370     274.455
  O     -251.263    -409.223     274.872
  O     -252.850    -407.669     273.662
  O     -252.977    -407.752     276.229
  H     -253.776    -407.970     273.760
  H     -252.672    -410.134     273.644
  H     -252.527    -410.788     275.308
  H     -251.260    -411.113     274.094
  H     -250.286    -407.018     267.246
  H     -248.828    -407.559     268.043
  H     -249.681    -406.156     268.640

 3  4  5  6  7  8  9  10  11  12  23  26  30  31  33  0
 6-311+G(2d,p)
 ****
 35  36  37  38 0
 6-311+G(2d,p)
 ****
 1  2  13  14  15  16  17  18  19  20  21  22  24  25  27  28  29 0
 3-21G
 ****
 32  34  39  40  41  42  43  44  45  46  47  48  49 0
 3-21G
 ****


