%nproc=1
%NoSave
%Mem=1900MB
#P OB98/GEN NMR

erre ene a

0 1
  C     -219.534     523.752     -80.830
  O     -219.198     525.075     -80.401
  P     -219.719     526.286     -81.321
  C     -217.745     526.106     -83.002
  O     -219.154     526.065     -82.803
  C     -217.416     525.927     -84.481
  O     -217.693     524.575     -84.929
  C     -218.234     526.826     -85.396
  O     -217.761     528.162     -85.347
  C     -218.031     526.134     -86.740
  O     -216.749     526.473     -87.301
  C     -218.041     524.648     -86.338
  N     -221.279     522.848     -89.861
  C     -220.068     523.438     -89.971
  N     -219.268     523.892     -88.979
  C     -219.827     523.675     -87.776
  C     -221.052     523.076     -87.512
  C     -221.798     522.654     -88.627
  N     -223.040     522.061     -88.525
  N     -221.286     523.026     -86.159
  C     -220.239     523.605     -85.613
  N     -219.321     524.001     -86.546
  O     -218.894     527.542     -80.778
  O     -221.194     526.509     -81.229
  H     -216.723     527.444     -87.406
  H     -219.485     528.142     -80.282
  H     -219.692     523.572     -90.979
  H     -220.095     523.761     -84.546
  H     -217.289     524.064     -86.882
  H     -218.789     526.398     -87.481
  H     -219.293     526.797     -85.114
  H     -216.347     526.121     -84.617
  H     -217.262     525.320     -82.413
  H     -223.540     521.865     -89.372
  H     -223.472     521.994     -87.612
  H     -217.365     527.059     -82.621
  P     -218.669     529.248     -84.588
  C     -219.871     529.863     -86.771
  O     -220.012     529.315     -85.474
  O     -217.924     530.608     -84.966
  O     -218.865     528.994     -83.131
  H     -217.705     530.648     -85.919
  H     -220.844     529.815     -87.274
  H     -219.140     529.294     -87.356
  H     -219.561     530.909     -86.702
  H     -219.133     523.040     -80.139
  H     -219.122     523.577     -81.802
  H     -220.598     523.650     -80.870

 3  4  5  6  7  8  9  10  11  12  22  25  29  30  31  32 0
 6-311+G(2d,p)
 ****
 33  36  37 0
 6-311+G(2d,p)
 ****
 1  2  13  14  15  16  17  18  19  20  21  23  24  26 0
 3-21G
 ****
 27  28  34  35  38  39  40  41  42  43  44  45  46  47  48 0
 3-21G
 ****


