%nproc=1
%NoSave
%Mem=1900MB
#P OB98/GEN NMR

erre ene a

0 1
  C     -427.574     -70.859     173.244
  O     -426.372     -71.617     173.176
  P     -425.149     -70.991     172.334
  C     -424.735     -72.292     170.134
  O     -425.487     -71.280     170.798
  C     -425.257     -73.676     170.502
  O     -426.697     -73.703     170.388
  C     -424.766     -74.799     169.594
  O     -423.456     -75.236     169.957
  C     -425.801     -75.875     169.872
  O     -425.459     -76.577     171.088
  C     -427.087     -75.057     170.066
  N     -430.628     -77.559     167.433
  C     -429.991     -77.895     168.619
  N     -430.373     -79.061     169.189
  N     -429.063     -77.167     169.178
  C     -428.808     -76.012     168.512
  C     -429.365     -75.563     167.333
  C     -430.354     -76.406     166.691
  O     -430.901     -76.189     165.616
  N     -428.864     -74.342     166.974
  C     -428.033     -74.032     167.954
  N     -427.938     -75.028     168.894
  O     -423.945     -71.993     172.654
  O     -424.806     -69.574     172.680
  H     -424.591     -76.987     170.944
  H     -423.090     -71.522     172.544
  H     -431.341     -78.143     167.052
  H     -427.481     -73.098     168.023
  H     -427.668     -75.431     170.916
  H     -425.852     -76.634     169.076
  H     -431.175     -79.595     168.872
  H     -424.817     -74.508     168.541
  H     -429.951     -79.307     170.074
  H     -424.993     -73.882     171.548
  H     -423.687     -72.219     170.441
  H     -424.791     -72.132     169.054
  P     -422.721     -76.223     168.925
  C     -421.998     -78.413     170.117
  O     -423.030     -77.701     169.457
  O     -421.172     -75.998     169.263
  O     -423.037     -75.957     167.492
  H     -420.617     -76.211     168.482
  H     -421.376     -77.760     170.722
  H     -421.382     -78.928     169.377
  H     -422.456     -79.163     170.765
  H     -428.297     -71.388     173.830
  H     -427.957     -70.708     172.256
  H     -427.373     -69.911     173.697

 3  4  5  6  7  8  9  10  11  12  23  26  30  31  33  0
 6-311+G(2d,p)
 ****
 35  36  37  38 0
 6-311+G(2d,p)
 ****
 1  2  13  14  15  16  17  18  19  20  21  22  24  25  27  28  29 0
 3-21G
 ****
 32  34  39  40  41  42  43  44  45  46  47  48  49 0
 3-21G
 ****


