%nproc=1
%NoSave
%Mem=1900MB
#P OB98/GEN NMR

erre ene a

0 1
  C       71.702     165.169     695.518
  O       72.124     166.533     695.641
  P       73.532     166.948     694.986
  C       74.720     168.579     696.647
  O       73.895     168.435     695.492
  C       75.006     170.055     696.899
  O       75.955     170.597     695.950
  C       73.776     170.951     696.812
  O       73.027     170.947     698.020
  C       74.415     172.320     696.605
  O       74.861     172.839     697.866
  C       75.610     171.987     695.709
  N       74.710     175.417     692.096
  C       74.985     175.590     693.445
  N       75.018     176.859     693.898
  N       75.178     174.608     694.272
  C       75.135     173.380     693.675
  C       74.881     173.088     692.358
  C       74.637     174.197     691.453
  O       74.387     174.100     690.254
  N       74.901     171.734     692.132
  C       75.190     171.213     693.311
  N       75.329     172.173     694.293
  O       73.155     167.185     693.444
  O       74.607     165.930     695.145
  H       74.068     172.936     698.432
  H       73.931     167.009     692.887
  H       74.560     176.216     691.504
  H       75.315     170.153     693.512
  H       76.494     172.593     695.934
  H       73.709     173.049     696.192
  H       74.923     177.681     693.302
  H       73.161     170.691     695.939
  H       75.240     177.006     694.873
  H       75.438     170.154     697.919
  H       75.666     168.031     696.512
  H       74.224     168.106     697.505
  P       71.453     170.645     697.930
  C       70.041     171.987     699.649
  O       70.872     170.878     699.410
  O       71.407     169.056     697.735
  O       70.739     171.366     696.827
  H       70.624     168.808     697.200
  H       69.615     171.897     700.651
  H       69.223     172.023     698.924
  H       70.622     172.921     699.600
  H       70.754     165.044     695.999
  H       72.424     164.529     695.981
  H       71.613     164.915     694.482

 3  4  5  6  7  8  9  10  11  12  23  26  30  31 0
 6-311+G(2d,p)
 ****
 33  35  36  37  38 0
 6-311+G(2d,p)
 ****
 1  2  13  14  15  16  17  18  19  20  21  22  24  25 0
 3-21G
 ****
 27  28  29  32  34  39  40  41  42  43  44  45  46  47  48  49 0
 3-21G
 ****


