%nproc=1
%NoSave
%Mem=1900MB
#P OB98/GEN NMR

erre ene a

0 1
  C     -254.439     114.376     -96.958
  O     -255.641     114.025     -97.648
  P     -255.537     112.787     -98.666
  C     -257.071     113.622    -100.581
  O     -256.908     112.715     -99.501
  C     -258.291     114.528    -100.374
  O     -259.521     113.845    -100.747
  C     -258.464     115.007     -98.926
  O     -259.004     116.338     -98.990
  C     -259.523     114.065     -98.387
  O     -260.144     114.592     -97.213
  C     -260.420     113.953     -99.617
  N     -264.029     111.697     -96.892
  C     -263.239     112.785     -96.593
  N     -263.479     113.403     -95.408
  N     -262.294     113.244     -97.381
  C     -262.200     112.553     -98.544
  C     -262.931     111.467     -98.963
  C     -263.954     110.959     -98.072
  O     -264.682     109.999     -98.292
  N     -262.558     111.068    -100.230
  C     -261.549     111.873    -100.529
  N     -261.334     112.823     -99.569
  O     -255.605     111.512     -97.702
  O     -254.291     112.792     -99.488
  H     -259.481     114.562     -96.491
  H     -254.715     111.152     -97.554
  H     -264.736     111.378     -96.244
  H     -260.971     111.823    -101.434
  H     -261.049     114.846     -99.761
  H     -259.074     113.096     -98.139
  H     -264.220     113.134     -94.779
  H     -257.543     115.002     -98.335
  H     -262.941     114.228     -95.182
  H     -258.186     115.398    -101.043
  H     -257.195     113.066    -101.517
  H     -256.157     114.209    -100.698
  P     -257.982     117.552     -99.194
  C     -258.689     118.695     -96.978
  O     -258.557     118.809     -98.383
  O     -258.209     117.962    -100.728
  O     -256.549     117.209     -98.934
  H     -257.352     118.194    -101.134
  H     -258.634     119.698     -96.537
  H     -257.907     118.075     -96.547
  H     -259.667     118.263     -96.745
  H     -254.628     115.208     -96.313
  H     -253.684     114.640     -97.669
  H     -254.105     113.542     -96.376

 3  4  5  6  7  8  9  10  11  12  23  26  30  31 0
 6-311+G(2d,p)
 ****
 33  35  36  37  38 0
 6-311+G(2d,p)
 ****
 1  2  13  14  15  16  17  18  19  20  21  22  24  25 0
 3-21G
 ****
 27  28  29  32  34  39  40  41  42  43  44  45  46  47  48  49 0
 3-21G
 ****


