%nproc=1
%NoSave
%Mem=1900MB
#P OB98/GEN NMR

erre ene a

0 1
  C      -16.258    -898.930     465.356
  O      -15.567    -897.870     464.712
  P      -14.581    -898.270     463.486
  C      -15.743    -896.700     461.779
  O      -14.548    -897.040     462.465
  C      -15.635    -895.270     461.205
  O      -15.769    -894.270     462.251
  C      -14.302    -894.970     460.547
  O      -14.225    -895.490     459.238
  C      -14.320    -893.440     460.508
  O      -15.083    -893.000     459.353
  C      -15.050    -893.080     461.810
  N      -11.970    -889.420     463.498
  C      -12.722    -889.490     462.327
  N      -12.678    -888.400     461.522
  N      -13.463    -890.530     462.007
  C      -13.451    -891.510     462.920
  C      -12.727    -891.570     464.105
  C      -11.880    -890.460     464.441
  O      -11.181    -890.350     465.452
  N      -12.969    -892.740     464.788
  C      -13.845    -893.390     464.030
  N      -14.157    -892.680     462.882
  O      -15.432    -899.390     462.703
  O      -13.251    -898.790     463.940
  H      -14.691    -893.440     458.577
  H      -14.823    -900.000     462.234
  H      -11.419    -888.610     463.697
  H      -14.296    -894.340     464.265
  H      -15.801    -892.300     461.664
  H      -13.314    -893.000     460.405
  H      -12.173    -887.540     461.765
  H      -13.464    -895.310     461.163
  H      -13.268    -888.420     460.695
  H      -16.465    -895.130     460.495
  H      -16.587    -896.720     462.483
  H      -15.937    -897.420     460.998
  P      -12.869    -896.280     458.817
  C      -13.634    -898.630     457.995
  O      -13.316    -897.310     457.640
  O      -12.600    -897.230     460.082
  O      -11.734    -895.380     458.523
  H      -11.633    -897.390     460.165
  H      -14.244    -898.650     458.901
  H      -12.704    -899.200     458.171
  H      -14.180    -899.080     457.165
  H      -16.869    -898.533     466.140
  H      -15.550    -899.618     465.769
  H      -16.875    -899.438     464.645

 3  4  5  6  7  8  9  10  11  12  23  26  30  31  33  0
 6-311+G(2d,p)
 ****
 35  36  37  38 0
 6-311+G(2d,p)
 ****
 1  2  13  14  15  16  17  18  19  20  21  22  24  25  27  28  29 0
 3-21G
 ****
 32  34  39  40  41  42  43  44  45  46  47  48  49 0
 3-21G
 ****


