%nproc=1
%NoSave
%Mem=1900MB
#P OB98/GEN NMR

erre ene a

0 1
  C       17.825    -171.720      80.708
  O       17.425    -170.604      79.910
  P       16.978    -169.266      80.679
  C       14.411    -169.724      80.885
  O       15.673    -169.664      81.529
  C       13.468    -168.647      81.440
  O       12.133    -168.831      80.881
  C       13.338    -168.645      82.968
  O       13.227    -167.272      83.372
  C       12.023    -169.370      83.201
  O       11.458    -169.058      84.466
  C       11.213    -168.882      81.992
  N       10.062    -169.733      81.703
  C        8.820    -169.284      82.137
  O        8.675    -168.264      82.808
  N        7.752    -170.076      81.815
  C        7.813    -171.287      81.183
  O        6.819    -171.954      80.917
  C        9.164    -171.761      80.848
  C       10.210    -170.975      81.122
  O       16.415    -168.381      79.476
  O       18.090    -168.645      81.463
  H       15.946    -168.898      78.800
  H       10.556    -169.437      84.516
  H        6.837    -169.754      82.092
  H        9.257    -172.743      80.399
  H       11.218    -171.307      80.910
  H       10.851    -167.859      82.164
  H       12.181    -170.451      83.147
  H       14.189    -169.109      83.468
  H       13.830    -167.673      81.095
  H       13.957    -170.705      81.047
  H       14.551    -169.610      79.804
  P       14.380    -166.662      84.313
  C       13.215    -166.871      86.650
  O       14.210    -167.328      85.758
  O       13.805    -165.177      84.531
  O       15.751    -166.668      83.724
  H       12.861    -165.168      84.764
  H       13.110    -167.596      87.463
  H       12.250    -166.767      86.149
  H       13.516    -165.907      87.079
  H       18.094    -172.536      80.070
  H       17.014    -172.015      81.341
  H       18.666    -171.445      81.310

 3  4  5  6  7  8  9  10  11  12  13  24  28  29  30  31  32 0
 6-311+G(2d,p)
 ****
 33  34 0
 6-311+G(2d,p)
 ****
 1  2  14  15  16  17  18  19  20  21  22  23  25  26  27 0
 3-21G
 ****
 35  36  37  38  39  40  41  42  43  44  45 0
 3-21G
 ****


