%nproc=1
%NoSave
%Mem=1900MB
#P OB98/GEN NMR

erre ene a

0 1
  C      -45.474     -40.825    -483.998
  O      -46.001     -42.033    -484.549
  P      -44.968     -42.978    -485.356
  C      -43.861     -43.007    -487.676
  O      -44.587     -42.255    -486.734
  C      -43.837     -42.324    -489.066
  O      -45.156     -42.314    -489.673
  C      -43.338     -40.866    -489.007
  O      -42.630     -40.609    -490.230
  C      -44.643     -40.080    -489.031
  O      -44.411     -38.733    -489.444
  C      -45.503     -40.934    -489.969
  N      -46.933     -40.683    -489.833
  C      -47.440     -39.594    -490.537
  O      -46.699     -38.847    -491.169
  N      -48.794     -39.345    -490.469
  C      -49.552     -40.095    -489.727
  N      -50.883     -39.800    -489.702
  C      -49.046     -41.238    -488.924
  C      -47.727     -41.464    -489.037
  O      -45.883     -44.223    -485.804
  O      -43.814     -43.425    -484.519
  H      -43.680     -38.746    -490.124
  H      -45.450     -45.060    -485.561
  H      -49.700     -41.829    -488.311
  H      -47.259     -42.272    -488.505
  H      -45.218     -40.748    -491.025
  H      -45.083     -40.046    -488.024
  H      -42.700     -40.650    -488.150
  H      -43.175     -42.898    -489.728
  H      -51.201     -39.022    -490.257
  H      -44.316     -44.008    -487.801
  H      -51.557     -40.306    -489.160
  H      -42.849     -43.184    -487.312
  P      -41.032     -40.445    -490.151
  C      -39.457     -38.409    -490.147
  O      -40.774     -38.868    -490.397
  O      -40.589     -41.058    -491.580
  O      -40.305     -41.091    -489.024
  H      -39.606     -41.085    -491.629
  H      -39.402     -37.355    -490.465
  H      -38.731     -38.995    -490.727
  H      -39.244     -38.454    -489.068
  H      -46.253     -40.294    -483.493
  H      -45.080     -40.216    -484.785
  H      -44.694     -41.060    -483.304

 3  4  5  6  7  8  9  10  11  12  13  21  23  27  28  29  30  32 0
 6-311+G(2d,p)
 ****
 34  35 0
 6-311+G(2d,p)
 ****
 1  2  14  15  16  17  18  19  20  22  24  25  26 0
 3-21G
 ****
 31  33  36  37  38  39  40  41  42  43  44  45  46 0
 3-21G
 ****


