%nproc=1
%NoSave
%Mem=1900MB
#P OB98/GEN NMR

erre ene a

0 1
  C       -1.245       5.907     -15.352
  O       -2.288       5.671     -16.271
  H       -0.706       6.806     -15.661
  H       -0.552       5.062     -15.358
  H       -1.630       6.059     -14.341
  P       -3.490       4.706     -15.841
  C       -5.393       4.747     -14.099
  O       -4.162       5.322     -14.518
  C       -5.729       5.113     -12.653
  O       -4.750       4.548     -11.754
  C       -5.701       6.623     -12.414
  O       -6.890       7.312     -12.751
  C       -5.434       6.695     -10.913
  O       -6.659       6.596     -10.169
  C       -4.554       5.468     -10.666
  N       -0.859       7.527      -7.803
  C       -2.217       7.470      -7.560
  N       -2.649       8.093      -6.441
  N       -3.067       6.875      -8.354
  C       -2.503       6.381      -9.481
  C       -1.173       6.390      -9.838
  C       -0.232       7.004      -8.925
  O        0.980       7.088      -9.097
  N       -0.976       5.789     -11.058
  C       -2.190       5.486     -11.469
  N       -3.148       5.802     -10.535
  O       -2.743       3.405     -15.274
  O       -4.446       4.345     -16.936
  H       -7.239       7.332     -10.434
  H       -3.318       2.625     -15.370
  H       -0.248       7.975      -7.143
  H       -2.428       5.017     -12.418
  H       -4.847       4.943      -9.748
  H       -4.969       7.645     -10.631
  H       -2.050       8.662      -5.863
  H       -4.852       7.075     -12.936
  H       -3.646       8.302      -6.367
  H       -6.701       4.680     -12.388
  H       -5.283       3.665     -14.194
  H       -6.201       5.052     -14.768
  P       -6.850       8.887     -13.036
  C       -5.753      10.292     -14.932
  O       -5.701       9.136     -14.125
  O       -6.229       9.476     -11.685
  O       -8.169       9.502     -13.356
  H       -6.941       9.783     -11.093
  H       -4.916      10.300     -15.598
  H       -5.722      11.162     -14.311
  H       -6.660      10.290     -15.499

 6  7  8  9  10  11  12  13  14  15  26  29  33  34 0
 6-311+G(2d,p)
 ****
 36  38  39  40  41 0
 6-311+G(2d,p)
 ****
 1  2  3  4  5  16  17  18  19  20  21  22  23  24  25 0
 3-21G
 ****
 27  28  30  31  32  35  37  42  43  44  45  46  47 0
 3-21G
 ****
 48  49 0
 3-21G
 ****


