%nproc=1
%NoSave
%Mem=1900MB
#P OB98/GEN NMR

erre ene a

0 1
  C      350.171     363.753     647.541
  O      350.061     365.175     647.549
  P      351.089     366.034     646.660
  C      351.021     364.626     644.502
  O      350.670     365.866     645.120
  C      350.428     364.540     643.090
  O      349.007     364.778     643.097
  C      351.006     365.577     642.135
  O      352.316     365.217     641.740
  C      349.962     365.560     641.025
  O      350.192     364.474     640.118
  C      348.652     365.330     641.812
  N      347.845     366.535     641.944
  C      346.736     366.447     642.789
  O      346.462     365.384     643.347
  N      345.963     367.571     642.973
  C      346.261     368.672     642.362
  N      345.462     369.748     642.581
  C      347.416     368.803     641.448
  C      348.149     367.706     641.279
  O      352.532     365.825     646.961
  O      350.647     367.549     646.978
  H      351.088     364.604     639.751
  H      351.431     368.122     646.896
  H      347.630     369.748     640.960
  H      349.014     367.712     640.620
  H      348.037     364.576     641.305
  H      349.990     366.479     640.432
  H      351.017     366.557     642.617
  H      350.613     363.528     642.706
  H      344.673     369.628     643.204
  H      350.648     363.798     645.113
  H      345.642     370.660     642.192
  H      352.112     364.539     644.479
  P      353.541     365.978     642.445
  C      353.931     365.964     645.008
  O      353.868     365.204     643.806
  O      352.871     367.352     642.942
  O      354.715     366.241     641.554
  H      353.526     368.067     642.892
  H      353.836     365.274     645.854
  H      353.118     366.693     645.067
  H      354.891     366.464     645.073
  H      349.421     363.334     648.178
  H      351.140     363.468     647.895
  H      350.035     363.390     646.543

 3  4  5  6  7  8  9  10  11  12  13  23  27  28  29  30  32 0
 6-311+G(2d,p)
 ****
 34  35 0
 6-311+G(2d,p)
 ****
 1  2  14  15  16  17  18  19  20  21  22  24  25  26 0
 3-21G
 ****
 31  33  36  37  38  39  40  41  42  43  44  45  46 0
 3-21G
 ****


