%nproc=1
%NoSave
%Mem=1900MB
#P OB98/GEN NMR

erre ene a

0 1
  C     -310.555    -206.152      93.830
  O     -309.994    -206.441      92.554
  P     -310.909    -206.253      91.250
  C     -310.368    -205.774      88.705
  O     -310.014    -206.372      89.929
  C     -309.183    -205.889      87.722
  O     -308.049    -205.128      88.216
  C     -308.702    -207.326      87.527
  O     -309.431    -207.997      86.514
  C     -307.235    -207.123      87.181
  O     -307.096    -206.705      85.811
  C     -306.858    -205.965      88.138
  N     -306.445    -206.302      89.517
  C     -305.142    -206.751      89.757
  O     -304.286    -206.885      88.890
  N     -304.834    -207.026      91.070
  C     -305.610    -206.751      92.160
  O     -305.264    -206.963      93.314
  C     -306.921    -206.151      91.861
  C     -307.271    -205.969      90.583
  O     -311.332    -204.713      91.299
  O     -312.109    -207.162      91.205
  H     -307.496    -207.403      85.253
  H     -312.297    -204.627      91.414
  H     -303.917    -207.412      91.250
  H     -307.546    -205.868      92.701
  H     -308.239    -205.518      90.352
  H     -306.062    -205.353      87.709
  H     -306.676    -208.051      87.275
  H     -308.753    -207.878      88.475
  H     -309.491    -205.462      86.756
  H     -310.633    -204.723      88.844
  H     -311.254    -206.272      88.290
  P     -310.315    -209.284      86.889
  C     -312.615    -210.035      86.036
  O     -311.387    -209.432      85.693
  O     -310.884    -209.318      88.267
  O     -309.324    -210.520      86.618
  H     -308.884    -210.805      87.448
  H     -313.307    -209.929      85.186
  H     -313.060    -209.546      86.915
  H     -312.467    -211.098      86.244
  H     -309.822    -206.326      94.590
  H     -311.401    -206.784      93.999
  H     -310.863    -205.128      93.860

 3  4  5  6  7  8  9  10  11  12  13  23  28  29  30  31  32 0
 6-311+G(2d,p)
 ****
 33  34 0
 6-311+G(2d,p)
 ****
 1  2  14  15  16  17  18  19  20  21  22  24  25  26  27 0
 3-21G
 ****
 35  36  37  38  39  40  41  42  43  44  45 0
 3-21G
 ****


