%nproc=1
%NoSave
%Mem=1900MB
#P OB98/GEN NMR

erre ene a

0 1
  C      135.660     109.243      44.095
  O      136.689     108.337      44.440
  H      135.993     109.846      43.248
  H      135.457     109.906      44.940
  H      134.749     108.708      43.812
  P      136.297     107.140      45.434
  C      136.913     108.716      47.403
  O      135.962     107.817      46.852
  C      137.722     108.025      48.495
  O      138.983     108.701      48.692
  C      137.037     107.990      49.858
  O      136.121     106.909      49.954
  C      138.234     107.773      50.769
  O      138.644     106.391      50.711
  C      139.299     108.662      50.112
  N      139.419     111.561      54.272
  C      139.301     110.189      54.151
  N      139.193     109.493      55.302
  N      139.287     109.557      53.007
  C      139.380     110.384      51.938
  C      139.493     111.756      51.930
  C      139.524     112.440      53.202
  O      139.637     113.652      53.364
  N      139.563     112.249      50.654
  C      139.468     111.179      49.890
  N      139.352     110.022      50.621
  O      137.703     106.412      45.682
  O      135.277     106.187      44.911
  H      137.926     105.863      51.107
  H      137.737     105.600      45.142
  H      139.414     111.998      55.177
  H      139.487     111.185      48.810
  H      140.307     108.245      50.213
  H      138.013     107.994      51.815
  H      139.174     109.918      56.216
  H      136.561     108.949      50.098
  H      139.109     108.486      55.237
  H      137.949     107.008      48.151
  H      136.385     109.576      47.827
  H      137.580     109.061      46.606
  P      134.703     107.176      50.656
  C      135.666     106.030      52.773
  O      134.951     107.137      52.242
  O      133.908     105.818      50.368
  O      133.956     108.362      50.150
  H      133.176     105.987      49.742
  H      135.754     106.138      53.834
  H      136.642     105.993      52.336
  H      135.140     105.125      52.549

 6  7  8  9  10  11  12  13  14  15  26  29  33  34 0
 6-311+G(2d,p)
 ****
 36  38  39  40  41 0
 6-311+G(2d,p)
 ****
 1  2  3  4  5  16  17  18  19  20  21  22  23  24  25 0
 3-21G
 ****
 27  28  30  31  32  35  37  42  43  44  45  46  47 0
 3-21G
 ****
 48  49 0
 3-21G
 ****


