%nproc=1
%NoSave
%Mem=1900MB
#P OB98/GEN NMR

erre ene a

0 1
  C     -682.481    -889.343     -74.873
  O     -681.113    -889.393     -74.525
  H     -682.818    -888.303     -74.823
  H     -683.058    -889.943     -74.160
  H     -682.654    -889.713     -75.893
  P     -680.254    -890.673     -74.947
  C     -680.027    -893.113     -74.134
  O     -680.413    -891.783     -73.795
  C     -679.246    -893.773     -72.991
  O     -680.023    -893.763     -71.774
  C     -678.895    -895.233     -73.294
  O     -677.702    -895.413     -74.011
  C     -678.776    -895.823     -71.886
  O     -677.446    -895.673     -71.370
  C     -679.770    -894.983     -71.072
  N     -682.335    -898.133     -67.971
  C     -680.992    -897.823     -67.956
  N     -680.229    -898.463     -67.033
  N     -680.460    -896.963     -68.797
  C     -681.304    -896.493     -69.715
  C     -682.664    -896.743     -69.843
  C     -683.279    -897.613     -68.852
  O     -684.475    -897.913     -68.806
  N     -683.201    -896.103     -70.937
  C     -682.162    -895.533     -71.520
  N     -681.000    -895.683     -70.775
  O     -678.729    -890.193     -74.735
  O     -680.469    -891.163     -76.352
  H     -676.827    -896.113     -72.013
  H     -678.158    -890.633     -75.381
  H     -682.713    -898.763     -67.280
  H     -682.190    -894.973     -72.441
  H     -679.335    -894.693     -70.094
  H     -678.990    -896.893     -71.887
  H     -680.590    -899.183     -66.428
  H     -679.724    -895.743     -73.795
  H     -679.216    -898.413     -67.135
  H     -678.328    -893.173     -72.789
  H     -679.422    -893.043     -75.024
  H     -680.917    -893.703     -74.377
  P     -677.463    -896.743     -74.884
  C     -677.445    -899.323     -74.351
  O     -677.339    -897.983     -73.879
  O     -675.967    -896.573     -75.433
  O     -678.447    -896.983     -75.991
  H     -675.976    -896.233     -76.341
  H     -677.335    -900.000     -73.530
  H     -676.676    -899.509     -75.072
  H     -678.403    -899.466     -74.806

 6  7  8  9  10  11  12  13  14  15  26  29  33  34 0
 6-311+G(2d,p)
 ****
 36  38  39  40  41 0
 6-311+G(2d,p)
 ****
 1  2  3  4  5  16  17  18  19  20  21  22  23  24  25 0
 3-21G
 ****
 27  28  30  31  32  35  37  42  43  44  45  46  47 0
 3-21G
 ****
 48  49 0
 3-21G
 ****


