%nproc=1
%NoSave
%Mem=1900MB
#P OB98/GEN NMR

erre ene a

0 1
  C     -211.223     933.463    -496.583
  O     -210.208     934.012    -497.401
  P     -208.713     933.440    -497.318
  C     -208.849     932.049    -499.515
  O     -208.703     932.046    -498.109
  C     -208.085     930.883    -500.154
  O     -206.673     931.100    -499.925
  C     -208.400     929.509    -499.559
  O     -207.970     928.509    -500.483
  C     -207.505     929.493    -498.335
  O     -207.265     928.169    -497.862
  C     -206.249     930.256    -498.829
  N     -205.660     931.079    -497.754
  C     -204.648     930.496    -497.002
  O     -204.184     929.384    -497.247
  N     -204.235     931.203    -495.905
  C     -204.775     932.383    -495.475
  O     -204.618     932.836    -494.350
  C     -205.666     933.055    -496.434
  C     -206.085     932.372    -497.502
  O     -208.585     933.010    -495.782
  O     -207.650     934.404    -497.717
  H     -206.818     928.258    -496.987
  H     -208.149     933.715    -495.270
  H     -203.602     930.716    -495.280
  H     -205.999     934.058    -496.205
  H     -206.785     932.822    -498.197
  H     -205.476     929.570    -499.187
  H     -207.992     930.048    -497.529
  H     -209.450     929.361    -499.299
  H     -208.263     930.879    -501.233
  H     -208.503     933.005    -499.912
  H     -209.912     931.966    -499.786
  P     -208.479     927.004    -500.251
  C     -210.713     927.600    -501.361
  O     -210.078     927.072    -500.215
  O     -207.838     926.264    -499.119
  O     -208.182     926.304    -501.660
  H     -208.174     925.333    -501.549
  H     -211.703     927.143    -501.457
  H     -210.136     927.394    -502.269
  H     -210.831     928.680    -501.242
  H     -212.147     933.967    -496.775
  H     -210.957     933.585    -495.554
  H     -211.333     932.421    -496.802

 3  4  5  6  7  8  9  10  11  12  13  23  28  29  30  31  32 0
 6-311+G(2d,p)
 ****
 33  34 0
 6-311+G(2d,p)
 ****
 1  2  14  15  16  17  18  19  20  21  22  24  25  26  27 0
 3-21G
 ****
 35  36  37  38  39  40  41  42  43  44  45 0
 3-21G
 ****


