%nproc=1
%NoSave
%Mem=1900MB
#P OB98/GEN NMR

erre ene a

0 1
  C     -271.532     266.742    -240.988
  O     -271.563     267.913    -240.193
  P     -271.254     267.849    -238.625
  C     -273.173     268.167    -236.856
  O     -272.581     267.379    -237.869
  C     -274.084     269.218    -237.502
  O     -274.848     268.625    -238.572
  C     -275.064     269.811    -236.494
  O     -274.550     271.016    -235.948
  C     -276.312     270.018    -237.331
  O     -276.222     271.241    -238.091
  C     -276.259     268.789    -238.276
  N     -276.779     267.502    -237.775
  C     -278.125     267.201    -237.923
  O     -278.938     267.938    -238.482
  N     -278.534     266.006    -237.374
  C     -277.724     265.097    -236.751
  O     -278.129     264.170    -236.061
  C     -276.284     265.351    -236.867
  C     -275.881     266.529    -237.342
  O     -271.126     269.391    -238.218
  O     -270.046     267.064    -238.236
  H     -276.234     271.973    -237.450
  H     -270.188     269.653    -238.169
  H     -279.535     265.844    -237.352
  H     -275.600     264.593    -236.512
  H     -274.822     266.751    -237.409
  H     -276.775     269.005    -239.224
  H     -277.199     270.119    -236.702
  H     -275.289     269.082    -235.707
  H     -273.457     270.011    -237.935
  H     -272.396     268.653    -236.255
  H     -273.755     267.529    -236.176
  P     -275.193     271.615    -234.609
  C     -276.584     273.751    -234.896
  O     -276.541     272.346    -235.077
  O     -274.277     272.437    -233.758
  O     -275.707     270.304    -233.833
  H     -275.050     270.038    -233.157
  H     -277.461     274.144    -235.416
  H     -275.685     274.219    -235.310
  H     -276.663     273.986    -233.829
  H     -271.764     266.993    -242.002
  H     -272.252     266.042    -240.620
  H     -270.556     266.306    -240.943

 3  4  5  6  7  8  9  10  11  12  13  23  28  29  30  31  32 0
 6-311+G(2d,p)
 ****
 33  34 0
 6-311+G(2d,p)
 ****
 1  2  14  15  16  17  18  19  20  21  22  24  25  26  27 0
 3-21G
 ****
 35  36  37  38  39  40  41  42  43  44  45 0
 3-21G
 ****


