%nproc=1
%NoSave
%Mem=1900MB
#P OB98/GEN NMR

erre ene a

0 1
  C      -66.959    -105.576    -127.739
  O      -65.906    -104.769    -127.250
  H      -67.199    -105.257    -128.758
  H      -67.853    -105.461    -127.119
  H      -66.654    -106.626    -127.765
  P      -65.418    -104.984    -125.741
  C      -66.536    -102.829    -124.841
  O      -66.498    -104.253    -124.808
  C      -66.839    -102.268    -123.452
  O      -68.068    -102.823    -122.945
  C      -65.776    -102.588    -122.407
  O      -64.633    -101.779    -122.593
  C      -66.559    -102.331    -121.128
  O      -66.648    -100.924    -120.853
  C      -67.948    -102.904    -121.505
  N      -68.159    -104.272    -121.044
  C      -68.642    -104.414    -119.737
  O      -68.850    -103.419    -119.041
  N      -68.855    -105.680    -119.253
  C      -68.651    -106.711    -120.012
  N      -68.887    -107.938    -119.475
  C      -68.177    -106.604    -121.406
  C      -67.942    -105.369    -121.847
  O      -63.996    -104.614    -125.445
  O      -65.693    -106.536    -125.463
  H      -65.727    -100.603    -120.788
  H      -64.890    -107.064    -125.640
  H      -68.029    -107.489    -122.007
  H      -67.590    -105.203    -122.862
  H      -68.747    -102.277    -121.086
  H      -66.097    -102.799    -120.259
  H      -65.515    -103.652    -122.443
  H      -66.981    -101.184    -123.551
  H      -69.233    -107.960    -118.520
  H      -67.328    -102.544    -125.543
  H      -68.920    -108.789    -120.015
  H      -65.586    -102.426    -125.211
  P      -63.155    -102.402    -122.604
  C      -62.726    -101.726    -120.160
  O      -62.839    -102.800    -121.081
  O      -62.115    -101.559    -123.261
  O      -63.353    -103.830    -123.300
  H      -63.443    -103.727    -124.280
  H      -62.516    -102.113    -119.185
  H      -63.645    -101.179    -120.136
  H      -61.932    -101.077    -120.465

 6  7  8  9  10  11  12  13  14  15  16  26  30  31  32  33  35 0
 6-311+G(2d,p)
 ****
 37  38 0
 6-311+G(2d,p)
 ****
 1  2  3  4  5  17  18  19  20  21  22  23  24  25 0
 3-21G
 ****
 27  28  29  34  36  39  40  41  42  43  44  45  46 0
 3-21G
 ****


