%nproc=1
%NoSave
%Mem=1900MB
#P OB98/GEN NMR

erre ene a

0 1
  C      184.437    -275.447     323.743
  O      183.830    -275.733     322.505
  H      183.949    -276.003     324.552
  H      185.490    -275.743     323.701
  H      184.381    -274.373     323.951
  P      182.247    -275.466     322.406
  C      182.064    -274.724     319.929
  O      181.830    -275.752     320.884
  C      181.951    -275.286     318.514
  O      183.164    -275.978     318.148
  C      180.836    -276.305     318.319
  O      179.560    -275.680     318.182
  C      181.276    -276.966     317.022
  O      180.896    -276.146     315.902
  C      182.806    -276.987     317.166
  N      186.510    -280.479     316.439
  C      186.269    -279.286     315.848
  N      185.262    -278.419     316.079
  C      184.460    -278.871     317.060
  C      184.584    -280.063     317.759
  C      185.661    -280.901     317.411
  N      185.896    -282.113     318.013
  N      183.576    -280.190     318.694
  C      182.857    -279.096     318.569
  N      183.349    -278.267     317.588
  O      182.131    -273.873     322.533
  O      181.416    -276.156     323.440
  H      181.352    -275.288     316.012
  H      181.315    -273.647     323.023
  H      186.971    -278.987     315.078
  H      181.985    -278.855     319.171
  H      183.304    -276.702     316.226
  H      180.834    -277.956     316.867
  H      180.825    -277.050     319.124
  H      181.830    -274.438     317.820
  H      183.076    -274.321     320.073
  H      186.783    -282.562     317.867
  H      185.257    -282.415     318.742
  H      181.337    -273.922     320.077
  P      178.317    -276.379     318.924
  C      176.920    -274.195     319.114
  O      177.035    -275.483     318.530
  O      178.560    -276.018     320.469
  O      178.192    -277.846     318.708
  H      178.123    -276.681     321.035
  H      176.027    -273.722     318.762
  H      177.768    -273.603     318.841
  H      176.878    -274.289     320.179

 6  7  8  9  10  11  12  13  14  15  25  28  32  33  34  35 0
 6-311+G(2d,p)
 ****
 36  39  40 0
 6-311+G(2d,p)
 ****
 1  2  3  4  5  16  17  18  19  20  21  22  23  24 0
 3-21G
 ****
 26  27  29  30  31  37  38  41  42  43  44  45  46  47  48 0
 3-21G
 ****


