%nproc=1
%NoSave
%Mem=1900MB
#P OB98/GEN NMR

erre ene a

0 1
  C      389.355      22.562     151.749
  O      389.050      21.516     152.678
  P      388.113      21.908     153.926
  C      389.651      20.925     155.784
  O      389.069      22.084     155.203
  C      390.405      21.282     157.065
  O      391.579      22.064     156.775
  C      389.602      22.115     158.053
  O      388.702      21.317     158.806
  C      390.708      22.671     158.938
  O      391.069      21.694     159.937
  C      391.863      22.873     157.938
  N      393.968      27.360     159.011
  C      394.035      26.162     159.700
  N      394.802      26.150     160.815
  N      393.419      25.071     159.324
  C      392.718      25.224     158.173
  C      392.569      26.358     157.407
  C      393.236      27.562     157.850
  O      393.177      28.661     157.297
  N      391.790      26.120     156.305
  C      391.487      24.836     156.390
  N      392.017      24.255     157.517
  O      387.335      20.543     154.236
  O      387.176      23.035     153.650
  H      390.247      21.445     160.403
  H      386.476      20.735     154.656
  H      394.456      28.172     159.350
  H      390.895      24.290     155.666
  H      392.819      22.529     158.351
  H      390.406      23.574     159.478
  H      395.363      26.932     161.118
  H      389.087      22.941     157.540
  H      394.890      25.268     161.308
  H      390.722      20.342     157.539
  H      390.337      20.460     155.077
  H      388.856      20.193     155.986
  P      387.159      21.335     158.364
  C      386.237      22.379     160.545
  O      386.486      22.539     159.167
  O      386.573      20.021     159.064
  O      386.942      21.317     156.882
  H      385.823      19.661     158.551
  H      387.076      21.897     161.052
  H      385.333      21.778     160.687
  H      386.073      23.363     160.994
  H      389.980      22.177     150.971
  H      389.865      23.353     152.258
  H      388.448      22.938     151.324

 3  4  5  6  7  8  9  10  11  12  23  26  30  31  33  0
 6-311+G(2d,p)
 ****
 35  36  37  38 0
 6-311+G(2d,p)
 ****
 1  2  13  14  15  16  17  18  19  20  21  22  24  25  27  28  29 0
 3-21G
 ****
 32  34  39  40  41  42  43  44  45  46  47  48  49 0
 3-21G
 ****


