%nproc=1
%NoSave
%Mem=1900MB
#P OB98/GEN NMR

erre ene a

0 1
  C      -51.582    -155.275    -317.130
  O      -50.476    -155.014    -316.296
  H      -51.414    -156.230    -317.639
  H      -51.690    -154.496    -317.886
  H      -52.498    -155.352    -316.537
  P      -50.367    -153.583    -315.570
  C      -49.008    -151.447    -315.977
  O      -49.236    -152.786    -316.400
  C      -47.784    -150.844    -316.668
  O      -46.618    -151.671    -316.408
  C      -47.930    -150.719    -318.190
  O      -47.502    -149.419    -318.605
  C      -46.989    -151.784    -318.733
  O      -46.554    -151.496    -320.058
  C      -45.901    -151.793    -317.651
  N      -45.077    -152.995    -317.682
  C      -43.748    -152.830    -318.089
  O      -43.339    -151.721    -318.434
  N      -42.926    -153.927    -318.134
  C      -43.401    -155.101    -317.851
  N      -42.540    -156.151    -317.927
  C      -44.811    -155.329    -317.464
  C      -45.582    -154.242    -317.392
  O      -50.137    -153.645    -314.099
  O      -51.715    -152.825    -315.977
  H      -45.987    -152.237    -320.368
  H      -51.882    -152.087    -315.338
  H      -45.163    -156.325    -317.245
  H      -46.623    -154.314    -317.105
  H      -45.244    -150.918    -317.754
  H      -47.505    -152.752    -318.747
  H      -48.948    -150.872    -318.539
  H      -47.574    -149.871    -316.208
  H      -41.584    -155.952    -318.196
  H      -48.873    -151.443    -314.888
  H      -42.801    -157.105    -317.733
  H      -49.890    -150.850    -316.231
  P      -48.632    -148.469    -319.235
  C      -49.084    -147.528    -321.609
  O      -48.537    -148.590    -320.837
  O      -48.081    -146.997    -318.932
  O      -49.991    -148.686    -318.656
  H      -48.542    -146.622    -318.156
  H      -48.952    -147.739    -322.650
  H      -48.584    -146.615    -321.364
  H      -50.128    -147.432    -321.394

 6  7  8  9  10  11  12  13  14  15  16  26  30  31  32  33  35 0
 6-311+G(2d,p)
 ****
 37  38 0
 6-311+G(2d,p)
 ****
 1  2  3  4  5  17  18  19  20  21  22  23  24  25 0
 3-21G
 ****
 27  28  29  34  36  39  40  41  42  43  44  45  46 0
 3-21G
 ****


