%nproc=1
%NoSave
%Mem=1900MB
#P OB98/GEN NMR

erre ene a

0 1
  C     -746.362      52.900    -972.628
  O     -747.164      54.050    -972.496
  H     -746.097      52.529    -971.630
  H     -745.434      53.128    -973.163
  H     -746.906      52.107    -973.146
  P     -747.626      54.757    -973.855
  C     -746.378      56.890    -973.061
  O     -746.540      55.918    -974.102
  C     -745.256      57.858    -973.431
  O     -744.037      57.132    -973.685
  C     -745.522      58.694    -974.663
  O     -746.314      59.839    -974.335
  C     -744.099      59.097    -975.056
  O     -743.674      60.221    -974.241
  C     -743.278      57.846    -974.694
  N     -739.784      56.370    -978.156
  C     -739.809      57.425    -977.300
  N     -740.804      57.773    -976.439
  C     -741.832      56.928    -976.520
  C     -741.949      55.800    -977.335
  C     -740.867      55.538    -978.180
  N     -740.832      54.470    -979.062
  N     -743.156      55.181    -977.148
  C     -743.727      55.861    -976.189
  N     -742.993      56.953    -975.790
  O     -749.062      55.176    -973.920
  O     -747.200      53.652    -974.940
  H     -744.205      60.995    -974.537
  H     -746.331      53.268    -974.700
  H     -738.946      58.056    -977.298
  H     -744.691      55.601    -975.720
  H     -742.313      58.113    -974.243
  H     -744.015      59.423    -976.088
  H     -745.951      58.103    -975.481
  H     -745.078      58.508    -972.542
  H     -746.149      56.394    -972.114
  H     -740.108      54.468    -979.744
  H     -741.681      53.939    -979.173
  H     -747.324      57.425    -972.960
  P     -747.059      60.667    -975.475
  C     -745.448      62.619    -974.955
  O     -746.012      61.771    -975.958
  O     -748.409      61.211    -975.070
  O     -747.157      59.654    -976.721
  H     -747.821      59.980    -977.360
  H     -744.768      63.308    -975.411
  H     -744.924      62.023    -974.237
  H     -746.230      63.161    -974.466

 6  7  8  9  10  11  12  13  14  15  25  28  32  33  34  35 0
 6-311+G(2d,p)
 ****
 36  39  40 0
 6-311+G(2d,p)
 ****
 1  2  3  4  5  16  17  18  19  20  21  22  23  24 0
 3-21G
 ****
 26  27  29  30  31  37  38  41  42  43  44  45  46  47 0
 3-21G
 ****
 48 0
 3-21G
 ****


