%nproc=1
%NoSave
%Mem=1900MB
#P OB98/GEN NMR

erre ene a

0 1
  C       53.147     321.958     249.204
  O       53.694     322.309     250.462
  P       53.223     323.700     251.116
  C       55.467     324.847     251.770
  O       54.341     324.090     252.201
  C       56.510     324.917     252.884
  O       55.987     325.617     254.030
  C       56.950     323.562     253.410
  O       57.928     322.950     252.582
  C       57.557     323.950     254.745
  O       58.893     324.458     254.553
  C       56.623     325.070     255.212
  N       55.123     325.052     260.046
  C       56.112     325.796     259.430
  N       56.840     326.605     260.229
  N       56.360     325.755     258.147
  C       55.556     324.893     257.474
  C       54.542     324.105     257.976
  C       54.286     324.153     259.397
  O       53.466     323.482     260.006
  N       53.945     323.370     256.985
  C       54.591     323.713     255.886
  N       55.606     324.601     256.135
  O       51.969     323.278     252.018
  O       52.874     324.765     250.134
  H       58.831     325.145     253.858
  H       51.440     324.067     252.248
  H       54.976     325.117     261.038
  H       54.371     323.333     254.895
  H       57.166     325.887     255.696
  H       57.641     323.106     255.440
  H       56.742     326.637     261.233
  H       56.091     322.897     253.581
  H       57.612     327.115     259.813
  H       57.372     325.484     252.504
  H       55.142     325.858     251.507
  H       55.893     324.381     250.879
  P       57.508     321.579     251.858
  C       60.059     321.108     251.729
  O       58.811     321.100     251.061
  O       56.512     322.070     250.706
  O       56.877     320.571     252.760
  H       55.883     321.362     250.469
  H       60.770     320.512     251.146
  H       59.971     320.669     252.728
  H       60.433     322.131     251.809
  H       53.546     321.015     248.892
  H       53.399     322.708     248.484
  H       52.083     321.885     249.286

 3  4  5  6  7  8  9  10  11  12  23  26  30  31 0
 6-311+G(2d,p)
 ****
 33  35  36  37  38 0
 6-311+G(2d,p)
 ****
 1  2  13  14  15  16  17  18  19  20  21  22  24  25 0
 3-21G
 ****
 27  28  29  32  34  39  40  41  42  43  44  45  46  47  48  49 0
 3-21G
 ****


