%nproc=1
%NoSave
%Mem=1900MB
#P OB98/GEN NMR

erre ene a

0 1
  C     -292.637      -1.728     -50.546
  O     -291.991      -0.645     -51.179
  H     -291.891      -2.491     -50.306
  H     -293.375      -2.167     -51.223
  H     -293.124      -1.413     -49.620
  P     -292.794       0.726     -51.387
  C     -292.059       0.618     -53.859
  O     -292.160       1.417     -52.690
  C     -291.001       1.194     -54.801
  O     -291.300       2.609     -55.011
  C     -289.565       1.098     -54.244
  O     -288.665       0.893     -55.340
  C     -289.372       2.484     -53.665
  O     -288.013       2.799     -53.495
  C     -290.099       3.339     -54.699
  N     -290.379       4.677     -54.186
  C     -289.905       5.749     -54.934
  O     -289.268       5.622     -55.978
  N     -290.122       6.992     -54.406
  C     -290.652       7.255     -53.178
  O     -290.751       8.384     -52.720
  C     -291.088       6.079     -52.405
  C     -290.939       4.863     -52.938
  O     -292.888       1.616     -50.193
  O     -294.232       0.266     -51.919
  H     -287.513       2.563     -54.298
  H     -294.892       0.967     -51.765
  H     -289.793       7.779     -54.943
  H     -291.499       6.251     -51.419
  H     -291.232       3.976     -52.391
  H     -289.511       3.423     -55.621
  H     -289.857       2.553     -52.685
  H     -289.443       0.300     -53.507
  H     -291.081       0.701     -55.777
  H     -293.036       0.611     -54.355
  H     -291.794      -0.407     -53.578
  P     -288.004      -0.539     -55.637
  C     -285.887       0.296     -56.827
  O     -287.080      -0.472     -56.952
  O     -288.979      -1.675     -55.639
  O     -286.943      -0.736     -54.453
  H     -287.029      -1.640     -54.092
  H     -285.350       0.274     -57.752
  H     -285.277      -0.117     -56.051
  H     -286.138       1.307     -56.584

 6  7  8  9  10  11  12  13  14  15  16  26  31  32  33  34  35 0
 6-311+G(2d,p)
 ****
 36  37 0
 6-311+G(2d,p)
 ****
 1  2  3  4  5  17  18  19  20  21  22  23  24  25 0
 3-21G
 ****
 27  28  29  30  38  39  40  41  42  43  44  45 0
 3-21G
 ****


