%nproc=1
%NoSave
%Mem=1900MB
#P OB98/GEN NMR

erre ene a

0 1
  C      360.281     164.627     623.737
  O      361.507     165.100     623.201
  P      361.547     166.597     622.625
  C      360.260     165.844     620.475
  O      361.397     166.492     621.035
  C      360.017     166.361     619.056
  O      359.574     167.734     619.083
  C      361.262     166.358     618.182
  O      361.552     165.058     617.689
  C      360.880     167.345     617.091
  O      360.099     166.704     616.069
  C      360.035     168.367     617.878
  N      360.755     169.602     618.149
  C      361.231     170.295     617.043
  O      361.075     169.892     615.890
  N      361.908     171.452     617.303
  C      362.214     171.949     618.534
  O      362.881     172.957     618.706
  C      361.717     171.160     619.675
  C      361.023     170.043     619.435
  O      363.058     167.056     622.841
  O      360.577     167.536     623.265
  H      359.727     167.414     615.508
  H      363.094     168.008     623.062
  H      362.239     171.980     616.506
  H      361.943     171.520     620.674
  H      360.659     169.434     620.264
  H      359.131     168.622     617.309
  H      361.760     167.776     616.599
  H      362.123     166.750     618.746
  H      359.228     165.751     618.597
  H      359.387     166.050     621.099
  H      360.436     164.766     620.466
  P      362.911     164.366     618.206
  C      364.376     165.522     616.376
  O      363.866     164.323     616.920
  O      362.413     162.850     618.416
  O      363.464     165.007     619.440
  H      361.722     162.600     617.768
  H      364.582     166.266     617.158
  H      363.649     165.931     615.679
  H      365.297     165.305     615.846
  H      360.406     163.621     624.080
  H      359.526     164.654     622.979
  H      359.986     165.249     624.556

 3  4  5  6  7  8  9  10  11  12  13  23  28  29  30  31  32 0
 6-311+G(2d,p)
 ****
 33  34 0
 6-311+G(2d,p)
 ****
 1  2  14  15  16  17  18  19  20  21  22  24  25  26 0
 3-21G
 ****
 27  35  36  37  38  39  40  41  42  43  44  45 0
 3-21G
 ****


