%nproc=1
%NoSave
%Mem=1900MB
#P OB98/GEN NMR

erre ene a

0 1
  C       -3.859       3.569     -16.283
  O       -4.710       2.680     -16.972
  H       -2.848       3.467     -16.687
  H       -3.841       3.312     -15.220
  H       -4.182       4.606     -16.404
  P       -6.290       2.920     -16.906
  C       -7.937       4.717     -17.753
  O       -6.583       4.401     -17.455
  C       -8.181       6.226     -17.763
  O       -8.200       6.738     -16.413
  C       -7.073       6.989     -18.489
  O       -7.211       7.065     -19.896
  C       -7.179       8.372     -17.853
  O       -8.171       9.168     -18.521
  C       -7.619       8.054     -16.422
  N       -5.380      10.636     -12.626
  C       -6.479      10.986     -13.386
  N       -7.010      12.204     -13.141
  N       -6.990      10.217     -14.311
  C       -6.296       9.073     -14.510
  C       -5.186       8.624     -13.830
  C       -4.660       9.459     -12.770
  O       -3.685       9.198     -12.072
  N       -4.759       7.410     -14.310
  C       -5.561       7.162     -15.325
  N       -6.527       8.130     -15.469
  O       -6.583       3.071     -15.336
  O       -7.129       1.835     -17.509
  H       -8.259      10.012     -18.043
  H       -7.501       2.811     -15.144
  H       -5.046      11.255     -11.909
  H       -5.504       6.290     -15.967
  H       -8.396       8.748     -16.078
  H       -6.235       8.921     -17.920
  H       -6.581      12.875     -12.523
  H       -6.094       6.569     -18.237
  H       -7.635      12.602     -13.844
  H       -9.166       6.429     -18.201
  H       -8.547       4.246     -16.979
  H       -8.228       4.275     -18.709
  P       -5.991       7.583     -20.794
  C       -3.783       6.391     -21.485
  O       -4.741       6.632     -20.477
  O       -5.602       8.970     -20.098
  O       -6.304       7.756     -22.240
  H       -6.027       9.713     -20.566
  H       -3.023       5.740     -21.106
  H       -3.341       7.318     -21.786
  H       -4.259       5.932     -22.327

 6  7  8  9  10  11  12  13  14  15  26  29  33  34 0
 6-311+G(2d,p)
 ****
 36  38  39  40  41 0
 6-311+G(2d,p)
 ****
 1  2  3  4  5  16  17  18  19  20  21  22  23  24  25 0
 3-21G
 ****
 27  28  30  31  32  35  37  42  43  44  45  46  47 0
 3-21G
 ****
 48  49 0
 3-21G
 ****


