%nproc=1
%NoSave
%Mem=1900MB
#P OB98/GEN NMR

erre ene a

0 1
  C      398.637      20.777      58.364
  O      399.022      22.143      58.255
  P      400.414      22.466      57.524
  C      400.586      24.448      59.194
  O      400.728      24.005      57.850
  C      400.177      25.916      59.235
  O      401.174      26.733      58.588
  C      398.867      26.225      58.517
  O      397.729      25.939      59.323
  C      399.002      27.728      58.307
  O      398.683      28.424      59.531
  C      400.496      27.869      57.996
  N      400.358      30.770      53.785
  C      399.935      30.996      55.048
  N      399.992      30.170      56.110
  C      400.530      28.988      55.759
  C      400.976      28.602      54.504
  C      400.883      29.557      53.482
  N      401.340      29.337      52.203
  N      401.460      27.312      54.537
  C      401.326      26.927      55.789
  N      400.775      27.907      56.570
  O      400.005      22.492      55.973
  O      401.512      21.496      57.798
  H      397.764      28.171      59.764
  H      400.784      22.317      55.419
  H      399.494      31.976      55.230
  H      401.610      25.957      56.173
  H      400.933      28.774      58.440
  H      398.333      28.112      57.536
  H      398.817      25.722      57.546
  H      400.115      26.223      60.289
  H      401.549      24.333      59.710
  H      401.410      30.131      51.579
  H      401.912      28.513      52.036
  H      399.839      23.824      59.694
  P      396.369      25.608      58.545
  C      394.457      27.244      59.224
  O      395.199      26.080      59.538
  O      396.297      24.009      58.607
  O      396.309      26.134      57.156
  H      395.762      23.667      57.860
  H      393.531      27.244      59.803
  H      394.197      27.267      58.154
  H      395.042      28.137      59.481
  H      397.696      20.711      58.869
  H      399.378      20.241      58.919
  H      398.547      20.353      57.386

 3  4  5  6  7  8  9  10  11  12  22  25  29  30  31  32 0
 6-311+G(2d,p)
 ****
 33  36  37 0
 6-311+G(2d,p)
 ****
 1  2  13  14  15  16  17  18  19  20  21  23  24  26 0
 3-21G
 ****
 27  28  34  35  38  39  40  41  42  43  44  45  46  47  48 0
 3-21G
 ****


