%nproc=1
%NoSave
%Mem=1900MB
#P OB98/GEN NMR

erre ene a

0 1
  C       84.800      21.249     -36.273
  O       85.062      21.940     -37.497
  P       83.809      22.674     -38.193
  C       83.206      20.421     -39.348
  O       82.751      21.536     -38.593
  C       82.042      19.499     -39.705
  O       81.535      18.829     -38.537
  C       80.840      20.215     -40.304
  O       81.030      20.499     -41.681
  C       79.750      19.168     -40.116
  O       79.809      18.203     -41.182
  C       80.142      18.518     -38.780
  N       75.817      18.017     -36.185
  C       76.266      17.334     -37.299
  N       75.457      16.360     -37.771
  N       77.402      17.581     -37.894
  C       78.120      18.561     -37.293
  C       77.784      19.310     -36.190
  C       76.507      19.047     -35.559
  O       76.048      19.644     -34.592
  N       78.772      20.205     -35.871
  C       79.717      19.979     -36.761
  N       79.362      18.999     -37.656
  O       84.405      23.136     -39.605
  O       83.268      23.821     -37.409
  H       80.674      17.752     -41.112
  H       83.922      23.919     -39.930
  H       74.930      17.790     -35.772
  H       80.670      20.490     -36.799
  H       80.055      17.426     -38.816
  H       78.744      19.596     -40.133
  H       74.605      16.068     -37.320
  H       80.592      21.115     -39.729
  H       75.787      15.824     -38.566
  H       82.413      18.740     -40.408
  H       83.948      19.863     -38.775
  H       83.708      20.785     -40.250
  P       80.757      22.006     -42.162
  C       79.286      21.101     -44.098
  O       79.378      21.954     -42.974
  O       81.866      22.232     -43.293
  O       80.846      23.026     -41.078
  H       82.108      23.176     -43.344
  H       79.742      20.128     -43.895
  H       79.780      21.566     -44.955
  H       78.231      20.949     -44.338
  H       85.705      20.807     -35.912
  H       84.072      20.483     -36.444
  H       84.427      21.940     -35.546

 3  4  5  6  7  8  9  10  11  12  23  26  30  31  33  0
 6-311+G(2d,p)
 ****
 35  36  37  38 0
 6-311+G(2d,p)
 ****
 1  2  13  14  15  16  17  18  19  20  21  22  24  25  27  28  29 0
 3-21G
 ****
 32  34  39  40  41  42  43  44  45  46  47  48  49 0
 3-21G
 ****


