%nproc=1
%NoSave
%Mem=1900MB
#P OB98/GEN NMR

erre ene a

0 1
  C     -141.981      71.723      26.096
  O     -141.365      72.821      26.738
  H     -143.053      71.918      26.018
  H     -141.830      70.811      26.680
  H     -141.570      71.594      25.091
  P     -139.787      72.696      27.002
  C     -138.311      72.575      29.129
  O     -139.612      72.441      28.578
  C     -138.350      72.386      30.643
  O     -138.916      73.547      31.288
  C     -139.166      71.184      31.105
  O     -138.396      69.995      31.046
  C     -139.510      71.591      32.530
  O     -138.401      71.344      33.421
  C     -139.762      73.098      32.382
  N     -144.022      74.824      34.470
  C     -142.815      74.493      35.052
  N     -142.737      74.612      36.395
  N     -141.777      74.069      34.381
  C     -142.015      73.942      33.054
  C     -143.165      74.235      32.358
  C     -144.289      74.755      33.108
  O     -145.355      75.144      32.640
  N     -143.010      73.992      31.018
  C     -141.782      73.521      30.910
  N     -141.140      73.467      32.120
  O     -139.257      74.196      26.812
  O     -139.060      71.751      26.108
  H     -138.341      70.388      33.597
  H     -138.385      74.167      26.374
  H     -144.777      75.174      35.032
  H     -141.312      73.218      29.984
  H     -139.455      73.653      33.276
  H     -140.350      71.017      32.921
  H     -143.561      74.646      36.978
  H     -140.090      71.087      30.523
  H     -141.877      74.298      36.826
  H     -137.312      72.302      30.990
  H     -137.930      73.575      28.898
  H     -137.650      71.828      28.680
  P     -139.071      68.688      30.411
  C     -140.419      66.660      31.311
  O     -139.937      67.973      31.558
  O     -137.823      67.703      30.214
  O     -139.780      68.916      29.120
  H     -137.583      67.658      29.270
  H     -140.974      66.318      32.159
  H     -139.592      66.003      31.138
  H     -141.054      66.669      30.450

 6  7  8  9  10  11  12  13  14  15  26  29  33  34 0
 6-311+G(2d,p)
 ****
 36  38  39  40  41 0
 6-311+G(2d,p)
 ****
 1  2  3  4  5  16  17  18  19  20  21  22  23  24  25 0
 3-21G
 ****
 27  28  30  31  32  35  37  42  43  44  45  46  47 0
 3-21G
 ****
 48  49 0
 3-21G
 ****


