%nproc=1
%NoSave
%Mem=1900MB
#P OB98/GEN NMR

erre ene a

0 1
  C      299.781    -155.641     243.716
  O      298.997    -156.782     244.002
  H      300.843    -155.872     243.846
  H      299.609    -155.347     242.678
  H      299.497    -154.814     244.371
  P      299.136    -157.403     245.475
  C      298.502    -159.831     244.815
  O      298.140    -158.665     245.546
  C      297.299    -160.764     244.695
  O      296.756    -160.983     246.023
  C      296.167    -160.239     243.796
  O      295.903    -161.170     242.742
  C      294.951    -160.191     244.711
  O      293.750    -160.628     244.071
  C      295.339    -161.108     245.866
  N      290.857    -159.594     247.766
  C      291.171    -160.248     246.624
  N      292.368    -160.717     246.226
  C      293.306    -160.472     247.161
  C      293.133    -159.841     248.380
  C      291.841    -159.368     248.666
  N      291.536    -158.652     249.801
  N      294.333    -159.767     249.068
  C      295.219    -160.312     248.256
  N      294.649    -160.732     247.084
  O      298.419    -156.310     246.403
  O      300.532    -157.675     245.920
  H      293.658    -160.099     243.258
  H      298.987    -156.112     247.171
  H      290.344    -160.410     245.934
  H      296.287    -160.381     248.441
  H      295.108    -162.162     245.651
  H      294.804    -159.159     245.051
  H      296.383    -159.253     243.379
  H      297.654    -161.739     244.330
  H      299.309    -160.355     245.341
  H      290.616    -158.255     249.872
  H      292.289    -158.390     250.423
  H      298.866    -159.534     243.826
  P      295.210    -160.577     241.415
  C      294.149    -162.940     241.174
  O      294.733    -161.821     240.521
  O      296.458    -159.990     240.595
  O      294.178    -159.532     241.684
  H      296.163    -159.262     240.014
  H      293.886    -163.680     240.447
  H      293.271    -162.628     241.699
  H      294.851    -163.355     241.867

 6  7  8  9  10  11  12  13  14  15  25  28  32  33  34  35 0
 6-311+G(2d,p)
 ****
 36  39  40 0
 6-311+G(2d,p)
 ****
 1  2  3  4  5  16  17  18  19  20  21  22  23  24 0
 3-21G
 ****
 26  27  29  30  31  37  38  41  42  43  44  45  46  47  48 0
 3-21G
 ****


