%nproc=1
%NoSave
%Mem=1900MB
#P OB98/GEN NMR

erre ene a

0 1
  C      505.801     344.019     -21.303
  O      504.498     343.470     -21.331
  H      506.369     343.530     -20.507
  H      505.768     345.096     -21.103
  H      506.308     343.834     -22.257
  P      503.386     344.210     -22.228
  C      501.868     344.610     -20.181
  O      502.626     345.213     -21.223
  C      500.714     345.508     -19.743
  O      499.908     344.858     -18.736
  C      501.150     346.820     -19.102
  O      501.807     347.714     -19.972
  C      499.879     347.262     -18.393
  O      498.970     347.931     -19.266
  C      499.285     345.898     -17.952
  N      499.454     345.664     -16.526
  C      498.528     346.298     -15.684
  O      497.639     347.035     -16.101
  N      498.684     346.078     -14.347
  C      499.683     345.345     -13.762
  O      499.781     345.200     -12.556
  C      500.647     344.725     -14.691
  C      500.488     344.913     -16.005
  O      502.463     343.311     -22.996
  O      504.242     345.200     -23.152
  H      498.091     347.876     -18.858
  H      503.696     345.533     -23.913
  H      498.022     346.520     -13.729
  H      501.450     344.150     -14.275
  H      501.185     344.464     -16.713
  H      498.215     345.867     -18.181
  H      500.089     347.939     -17.560
  H      501.879     346.587     -18.313
  H      500.076     345.688     -20.615
  H      502.539     344.441     -19.332
  H      501.487     343.643     -20.519
  P      503.012     348.669     -19.534
  C      501.547     350.332     -18.138
  O      502.614     349.389     -18.147
  O      503.631     349.499     -20.605
  O      504.113     347.593     -19.049
  H      504.987     347.960     -19.268
  H      501.415     350.712     -17.146
  H      500.645     349.854     -18.459
  H      501.779     351.139     -18.801

 6  7  8  9  10  11  12  13  14  15  16  26  31  32  33  34  35 0
 6-311+G(2d,p)
 ****
 36  37 0
 6-311+G(2d,p)
 ****
 1  2  3  4  5  17  18  19  20  21  22  23  24  25 0
 3-21G
 ****
 27  28  29  30  38  39  40  41  42  43  44  45 0
 3-21G
 ****


