%nproc=1
%NoSave
%Mem=1900MB
#P OB98/GEN NMR

erre ene a

0 1
  C      529.464     -54.319     524.983
  O      528.457     -54.645     524.044
  H      529.399     -53.253     525.204
  H      530.452     -54.535     524.572
  H      529.315     -54.877     525.912
  P      528.336     -56.169     523.547
  C      528.203     -55.407     521.072
  O      527.547     -56.062     522.147
  C      527.212     -55.114     519.950
  O      526.716     -56.337     519.359
  C      525.957     -54.363     520.376
  O      526.178     -52.990     520.657
  C      525.093     -54.572     519.144
  O      525.535     -53.712     518.089
  C      525.389     -56.057     518.826
  N      524.402     -56.971     519.406
  C      523.920     -57.982     518.564
  O      524.316     -58.081     517.408
  N      522.968     -58.850     519.054
  C      522.528     -58.703     520.261
  N      521.582     -59.587     520.688
  C      522.984     -57.638     521.175
  C      523.919     -56.819     520.689
  O      527.767     -57.135     524.538
  O      529.810     -56.549     523.057
  H      525.546     -52.802     518.442
  H      529.796     -57.486     522.748
  H      522.559     -57.542     522.161
  H      524.300     -56.004     521.292
  H      525.429     -56.220     517.740
  H      524.036     -54.353     519.316
  H      525.470     -54.862     521.233
  H      527.753     -54.576     519.159
  H      521.281     -60.309     520.043
  H      529.015     -56.052     520.721
  H      521.122     -59.507     521.589
  H      528.626     -54.460     521.412
  P      525.671     -52.444     522.083
  C      524.346     -50.498     520.938
  O      525.340     -50.885     521.871
  O      527.000     -52.449     522.966
  O      524.559     -53.229     522.698
  H      527.036     -53.246     523.527
  H      524.261     -49.431     520.929
  H      523.407     -50.929     521.218
  H      524.619     -50.842     519.962

 6  7  8  9  10  11  12  13  14  15  16  26  30  31  32  33  35 0
 6-311+G(2d,p)
 ****
 37  38 0
 6-311+G(2d,p)
 ****
 1  2  3  4  5  17  18  19  20  21  22  23  24  25 0
 3-21G
 ****
 27  28  29  34  36  39  40  41  42  43  44  45  46 0
 3-21G
 ****


