%nproc=1
%NoSave
%Mem=1900MB
#P OB98/GEN NMR

erre ene a

0 1
  C     -104.364    -550.003      71.996
  O     -103.836    -548.712      72.344
  P     -104.855    -547.541      72.766
  C     -103.135    -545.585      72.496
  O     -104.007    -546.311      73.355
  C     -101.923    -545.084      73.287
  O     -102.340    -544.213      74.362
  C     -101.107    -546.184      73.958
  O     -100.285    -546.875      73.033
  C     -100.322    -545.383      74.992
  O      -99.153    -544.790      74.399
  C     -101.338    -544.301      75.401
  N     -101.942    -544.564      76.704
  C     -101.068    -544.619      77.794
  O      -99.849    -544.521      77.679
  N     -101.650    -544.829      79.011
  C     -102.979    -545.049      79.241
  O     -103.438    -545.253      80.363
  C     -103.840    -545.057      78.048
  C     -103.293    -544.821      76.853
  O     -105.525    -548.144      74.096
  O     -105.899    -547.195      71.758
  H      -99.472    -544.167      73.718
  H     -106.423    -547.775      74.200
  H     -101.042    -544.844      79.812
  H     -104.900    -545.250      78.186
  H     -103.912    -544.822      75.967
  H     -100.849    -543.318      75.432
  H      -99.978    -546.006      75.823
  H     -101.783    -546.876      74.479
  H     -101.288    -544.501      72.602
  H     -103.671    -544.725      72.082
  H     -102.822    -546.235      71.674
  P     -100.288    -548.478      73.132
  C      -97.901    -549.284      72.442
  O      -99.217    -548.969      72.047
  O     -101.714    -548.823      72.491
  O     -100.094    -548.982      74.527
  H     -101.967    -548.193      71.791
  H      -97.869    -549.709      73.452
  H      -97.291    -548.380      72.412
  H      -97.487    -550.020      71.739
  H     -103.559    -550.661      71.742
  H     -105.022    -549.905      71.158
  H     -104.904    -550.404      72.828

 3  4  5  6  7  8  9  10  11  12  13  23  28  29  30  31  32 0
 6-311+G(2d,p)
 ****
 33  34 0
 6-311+G(2d,p)
 ****
 1  2  14  15  16  17  18  19  20  21  22  24  25  26 0
 3-21G
 ****
 27  35  36  37  38  39  40  41  42  43  44  45 0
 3-21G
 ****


