%nproc=1
%NoSave
%Mem=1900MB
#P OB98/GEN NMR

erre ene a

0 1
  C     -106.118      25.902     249.939
  O     -106.706      26.147     248.680
  H     -106.305      24.861     250.222
  H     -106.551      26.554     250.704
  H     -105.034      26.062     249.884
  P     -106.719      27.642     248.104
  C     -108.919      28.306     249.261
  O     -108.260      28.088     248.020
  C     -110.251      29.038     249.051
  O     -110.037      30.124     248.107
  C     -111.362      28.139     248.487
  O     -112.605      28.525     249.087
  C     -111.354      28.484     247.011
  O     -112.600      28.197     246.397
  C     -110.965      29.967     247.021
  N     -110.386      30.373     245.746
  C     -111.291      30.615     244.696
  O     -112.507      30.491     244.883
  N     -110.806      30.914     243.450
  C     -109.522      30.921     243.246
  N     -109.103      31.191     241.978
  C     -108.529      30.649     244.306
  C     -109.027      30.392     245.517
  O     -105.934      27.869     246.854
  O     -106.151      28.519     249.324
  H     -112.809      27.236     246.530
  H     -105.177      28.602     249.254
  H     -107.473      30.661     244.084
  H     -108.377      30.164     246.361
  H     -111.840      30.600     247.230
  H     -110.588      27.895     246.499
  H     -111.183      27.072     248.664
  H     -110.554      29.495     249.998
  H     -109.824      31.345     241.268
  H     -108.258      28.917     249.895
  H     -108.137      31.182     241.680
  H     -109.101      27.349     249.765
  P     -113.091      27.853     250.464
  C     -115.552      27.650     249.811
  O     -114.632      28.242     250.721
  O     -112.187      28.096     251.635
  O     -113.159      26.281     250.117
  H     -112.973      25.771     250.925
  H     -116.546      27.962     250.055
  H     -115.486      26.584     249.879
  H     -115.316      27.959     248.814

 6  7  8  9  10  11  12  13  14  15  16  26  30  31  32  33  35 0
 6-311+G(2d,p)
 ****
 37  38 0
 6-311+G(2d,p)
 ****
 1  2  3  4  5  17  18  19  20  21  22  23  24  25 0
 3-21G
 ****
 27  28  29  34  36  39  40  41  42  43  44  45  46 0
 3-21G
 ****


