%nproc=1
%NoSave
%Mem=1900MB
#P OB98/GEN NMR

erre ene a

0 1
  C     -229.361      46.215     -78.879
  O     -229.602      46.277     -77.472
  P     -231.017      46.868     -76.989
  C     -229.994      49.098     -76.084
  O     -230.856      48.466     -77.014
  C     -230.527      50.484     -75.699
  O     -231.872      50.356     -75.137
  C     -229.667      51.238     -74.675
  O     -229.707      52.626     -75.044
  C     -230.406      51.016     -73.371
  O     -230.085      52.003     -72.401
  C     -231.862      51.039     -73.867
  N     -232.791      50.427     -72.920
  C     -233.255      51.225     -71.886
  O     -232.863      52.377     -71.703
  N     -234.154      50.646     -71.037
  C     -234.571      49.346     -71.073
  O     -235.383      48.876     -70.289
  C     -233.954      48.516     -72.124
  C     -233.109      49.084     -72.979
  O     -231.005      46.493     -75.436
  O     -232.167      46.327     -77.767
  H     -230.127      46.563     -75.024
  H     -229.126      51.954     -72.203
  H     -234.537      51.223     -70.296
  H     -234.218      47.461     -72.151
  H     -232.623      48.494     -73.750
  H     -232.187      52.068     -74.048
  H     -230.155      50.031     -72.961
  H     -228.628      50.889     -74.656
  H     -230.619      51.075     -76.619
  H     -228.996      49.218     -76.520
  H     -229.884      48.458     -75.193
  P     -228.311      53.379     -75.319
  C     -227.372      53.696     -72.892
  O     -227.327      52.996     -74.117
  O     -228.739      54.887     -74.961
  O     -227.778      53.241     -76.706
  H     -229.227      54.958     -74.129
  H     -226.804      53.139     -72.145
  H     -228.402      53.805     -72.542
  H     -226.921      54.690     -73.012
  H     -228.389      45.805     -79.057
  H     -229.413      47.200     -79.294
  H     -230.100      45.594     -79.340

 3  4  5  6  7  8  9  10  11  12  13  24  28  29  30  31  32 0
 6-311+G(2d,p)
 ****
 33  34 0
 6-311+G(2d,p)
 ****
 1  2  14  15  16  17  18  19  20  21  22  23  25  26  27 0
 3-21G
 ****
 35  36  37  38  39  40  41  42  43  44  45 0
 3-21G
 ****


