%nproc=1
%NoSave
%Mem=1900MB
#P OB98/GEN NMR

erre ene a

0 1
  C      710.237    -214.875    -899.532
  O      710.171    -215.069    -898.122
  P      711.492    -215.452    -897.312
  C      710.561    -214.024    -895.342
  O      711.168    -215.232    -895.752
  C      710.279    -214.041    -893.812
  O      709.216    -215.016    -893.582
  C      711.446    -214.491    -892.962
  O      711.206    -214.069    -891.621
  C      711.348    -216.009    -893.032
  O      712.048    -216.652    -891.982
  C      709.807    -216.235    -893.092
  N      709.458    -217.370    -893.952
  C      708.487    -218.261    -893.482
  O      707.881    -218.080    -892.422
  N      708.292    -219.404    -894.222
  C      709.012    -219.733    -895.342
  O      709.055    -220.875    -895.802
  C      709.838    -218.674    -895.922
  C      710.036    -217.568    -895.192
  O      712.499    -214.248    -897.662
  O      712.088    -216.775    -897.642
  H      712.979    -216.305    -892.012
  H      713.086    -214.499    -898.402
  H      707.706    -220.097    -893.792
  H      710.291    -218.848    -896.882
  H      710.700    -216.780    -895.572
  H      709.412    -216.429    -892.080
  H      711.808    -216.333    -893.992
  H      712.421    -214.130    -893.302
  H      709.906    -213.057    -893.512
  H      709.627    -213.889    -895.912
  H      711.203    -213.176    -895.572
  P      712.451    -213.506    -890.775
  C      711.138    -211.388    -890.164
  O      711.833    -212.513    -889.666
  O      713.591    -212.968    -891.548
  O      712.874    -214.787    -889.873
  H      713.774    -214.665    -889.549
  H      710.355    -211.093    -889.433
  H      710.653    -211.592    -891.116
  H      711.833    -210.561    -890.293
  H      709.265    -214.626    -899.903
  H      710.578    -215.775    -900.000
  H      710.917    -214.079    -899.751

 3  4  5  6  7  8  9  10  11  12  13  23  28  29  30  31  32 0
 6-311+G(2d,p)
 ****
 33  34 0
 6-311+G(2d,p)
 ****
 1  2  14  15  16  17  18  19  20  21  22  24  25  26  27 0
 3-21G
 ****
 35  36  37  38  39  40  41  42  43  44  45 0
 3-21G
 ****


