%nproc=1
%NoSave
%Mem=1900MB
#P OB98/GEN NMR

erre ene a

0 1
  C     -206.941    -572.615     -40.106
  O     -207.902    -572.160     -41.036
  H     -206.991    -571.985     -39.214
  H     -205.934    -572.545     -40.526
  H     -207.154    -573.648     -39.814
  P     -207.947    -572.847     -42.485
  C     -206.687    -570.793     -43.446
  O     -206.699    -572.205     -43.268
  C     -206.797    -570.443     -44.927
  O     -207.115    -569.047     -45.107
  C     -205.517    -570.655     -45.733
  O     -205.236    -572.028     -45.994
  C     -205.873    -569.884     -46.992
  O     -206.785    -570.661     -47.794
  C     -206.575    -568.641     -46.401
  N     -205.672    -567.497     -46.242
  C     -205.324    -566.805     -47.413
  O     -205.763    -567.169     -48.509
  N     -204.449    -565.748     -47.322
  C     -203.958    -565.414     -46.171
  N     -203.063    -564.389     -46.137
  C     -204.314    -566.102     -44.910
  C     -205.168    -567.126     -45.018
  O     -209.259    -572.787     -43.204
  O     -207.431    -574.342     -42.232
  H     -206.926    -570.167     -48.620
  H     -207.454    -574.817     -43.103
  H     -203.869    -565.794     -43.975
  H     -205.461    -567.686     -44.136
  H     -207.425    -568.339     -47.025
  H     -205.000    -569.656     -47.618
  H     -204.663    -570.174     -45.251
  H     -207.633    -571.020     -45.344
  H     -202.806    -563.970     -47.028
  H     -205.755    -570.404     -43.017
  H     -202.437    -564.258     -45.348
  H     -207.535    -570.342     -42.918
  P     -203.731    -572.541     -45.757
  C     -203.617    -573.569     -48.149
  O     -203.050    -572.672     -47.211
  O     -203.946    -574.057     -45.298
  O     -202.919    -571.753     -44.773
  H     -203.975    -574.133     -44.325
  H     -203.053    -573.539     -49.058
  H     -204.629    -573.284     -48.348
  H     -203.598    -574.562     -47.750

 6  7  8  9  10  11  12  13  14  15  16  26  30  31  32  33  35 0
 6-311+G(2d,p)
 ****
 37  38 0
 6-311+G(2d,p)
 ****
 1  2  3  4  5  17  18  19  20  21  22  23  24  25 0
 3-21G
 ****
 27  28  29  34  36  39  40  41  42  43  44  45  46 0
 3-21G
 ****


