%nproc=1
%NoSave
%Mem=1900MB
#P OB98/GEN NMR

erre ene a

0 1
  C      -71.357     -12.422     -10.137
  O      -70.403     -11.855     -11.019
  P      -70.797     -11.729     -12.571
  C      -70.905     -13.382     -14.582
  O      -70.724     -13.209     -13.186
  C      -71.019     -14.869     -14.928
  O      -72.328     -15.339     -14.516
  C      -70.869     -15.195     -16.418
  O      -70.258     -16.488     -16.503
  C      -72.306     -15.278     -16.897
  O      -72.442     -16.027     -18.100
  C      -72.974     -15.904     -15.677
  N      -77.558     -17.536     -17.054
  C      -76.309     -18.039     -17.367
  N      -76.286     -19.171     -18.102
  N      -75.186     -17.484     -16.992
  C      -75.368     -16.367     -16.249
  C      -76.548     -15.751     -15.907
  C      -77.782     -16.394     -16.295
  O      -78.909     -16.032     -15.967
  N      -76.326     -14.586     -15.222
  C      -75.017     -14.541     -15.080
  N      -74.396     -15.622     -15.646
  O      -69.525     -10.994     -13.202
  O      -72.077     -11.010     -12.858
  H      -73.390     -16.244     -18.212
  H      -69.659     -10.027     -13.238
  H      -78.388     -18.017     -17.356
  H      -74.468     -13.762     -14.578
  H      -72.850     -16.993     -15.643
  H      -72.692     -14.269     -17.083
  H      -77.112     -19.668     -18.399
  H      -70.280     -14.458     -16.970
  H      -75.384     -19.579     -18.318
  H      -70.275     -15.418     -14.339
  H      -70.036     -12.969     -15.104
  H      -71.795     -12.837     -14.908
  P      -68.947     -16.640     -17.413
  C      -68.479     -16.554     -19.958
  O      -69.426     -16.776     -18.933
  O      -68.436     -18.117     -17.055
  O      -67.879     -15.630     -17.147
  H      -67.464     -18.150     -17.115
  H      -68.820     -17.056     -20.866
  H      -67.494     -16.945     -19.688
  H      -68.402     -15.482     -20.155
  H      -70.958     -12.441      -9.144
  H      -71.583     -13.420     -10.450
  H      -72.250     -11.833     -10.151

 3  4  5  6  7  8  9  10  11  12  23  26  30  31 0
 6-311+G(2d,p)
 ****
 33  35  36  37  38 0
 6-311+G(2d,p)
 ****
 1  2  13  14  15  16  17  18  19  20  21  22  24  25 0
 3-21G
 ****
 27  28  29  32  34  39  40  41  42  43  44  45  46  47  48  49 0
 3-21G
 ****


