%nproc=1
%NoSave
%Mem=1900MB
#P OB98/GEN NMR

erre ene a

0 1
  C       65.114     -47.484    -114.322
  O       63.943     -46.847    -114.804
  P       62.966     -46.155    -113.738
  C       61.541     -48.286    -113.325
  O       62.400     -47.302    -112.766
  C       60.753     -49.004    -112.228
  O       61.669     -49.743    -111.376
  C       59.955     -48.059    -111.325
  O       58.743     -48.708    -110.910
  C       60.833     -47.915    -110.100
  O       60.076     -47.532    -108.952
  C       61.441     -49.316    -110.018
  N       63.693     -47.879    -105.726
  C       62.350     -47.916    -106.042
  N       61.500     -47.419    -105.115
  N       61.880     -48.400    -107.161
  C       62.847     -48.855    -107.995
  C       64.209     -48.885    -107.788
  C       64.714     -48.335    -106.550
  O       65.894     -48.247    -106.222
  N       64.865     -49.454    -108.848
  C       63.912     -49.729    -109.717
  N       62.675     -49.351    -109.260
  O       61.696     -45.754    -114.626
  O       63.538     -44.960    -113.053
  H       59.749     -46.627    -109.118
  H       61.695     -44.791    -114.786
  H       64.006     -47.484    -104.854
  H       64.062     -50.173    -110.692
  H       60.746     -50.029    -109.561
  H       61.601     -47.153    -110.272
  H       61.802     -46.972    -104.265
  H       59.712     -47.094    -111.780
  H       60.514     -47.394    -105.342
  H       60.090     -49.741    -112.699
  H       62.140     -49.015    -113.870
  H       60.852     -47.811    -114.032
  P       57.391     -47.860    -111.098
  C       57.213     -47.148    -108.601
  O       57.408     -46.751    -109.942
  O       56.251     -48.879    -110.632
  O       57.175     -47.354    -112.485
  H       55.403     -48.654    -111.058
  H       58.118     -46.917    -108.028
  H       56.997     -48.215    -108.510
  H       56.376     -46.583    -108.182
  H       65.660     -47.896    -115.145
  H       64.841     -48.268    -113.647
  H       65.724     -46.769    -113.811

 3  4  5  6  7  8  9  10  11  12  23  26  30  31 0
 6-311+G(2d,p)
 ****
 33  35  36  37  38 0
 6-311+G(2d,p)
 ****
 1  2  13  14  15  16  17  18  19  20  21  22  24  25 0
 3-21G
 ****
 27  28  29  32  34  39  40  41  42  43  44  45  46  47  48  49 0
 3-21G
 ****


