%nproc=1
%NoSave
%Mem=1900MB
#P OB98/GEN NMR

erre ene a

0 1
  C      -27.966     478.727     -58.545
  O      -28.843     479.853     -58.680
  P      -29.005     480.973     -57.546
  C      -28.851     482.906     -59.248
  O      -28.333     482.338     -58.048
  C      -28.335     484.332     -59.466
  O      -28.852     485.220     -58.460
  C      -26.821     484.480     -59.396
  O      -26.202     483.996     -60.577
  C      -26.683     485.984     -59.175
  O      -26.778     486.701     -60.413
  C      -27.898     486.283     -58.272
  N      -27.531     486.431     -56.871
  C      -27.151     487.710     -56.457
  O      -27.077     488.634     -57.268
  N      -26.834     487.905     -55.132
  C      -26.828     486.899     -54.316
  N      -26.516     487.155     -53.019
  C      -27.136     485.518     -54.731
  C      -27.479     485.361     -56.010
  O      -28.551     480.534     -56.189
  O      -30.570     481.317     -57.520
  H      -26.415     487.592     -60.246
  H      -30.825     481.577     -56.616
  H      -27.092     484.702     -54.026
  H      -27.730     484.380     -56.397
  H      -28.400     487.200     -58.603
  H      -25.727     486.254     -58.717
  H      -26.435     483.947     -58.520
  H      -28.708     484.676     -60.442
  H      -26.315     488.113     -52.763
  H      -29.946     482.926     -59.172
  H      -26.483     486.445     -52.302
  H      -28.571     482.267     -60.091
  P      -25.106     482.835     -60.480
  C      -26.156     481.728     -62.547
  O      -25.705     481.544     -61.217
  O      -24.543     482.587     -59.122
  O      -23.958     483.314     -61.493
  H      -23.095     482.997     -61.168
  H      -26.152     480.762     -63.055
  H      -25.508     482.421     -63.092
  H      -27.177     482.119     -62.532
  H      -28.027     478.120     -59.424
  H      -28.256     478.149     -57.692
  H      -26.961     479.071     -58.418

 3  4  5  6  7  8  9  10  11  12  13  23  27  28  29  30  32 0
 6-311+G(2d,p)
 ****
 34  35 0
 6-311+G(2d,p)
 ****
 1  2  14  15  16  17  18  19  20  21  22  24  25  26 0
 3-21G
 ****
 31  33  36  37  38  39  40  41  42  43  44  45  46 0
 3-21G
 ****


