%nproc=1
%NoSave
%Mem=1900MB
#P OB98/GEN NMR

erre ene a

0 1
  C      202.550    -939.596     968.029
  O      202.346    -939.011     966.752
  H      203.273    -940.403     967.930
  H      201.604    -940.010     968.405
  H      202.943    -938.860     968.729
  P      201.448    -937.692     966.634
  C      203.546    -936.267     966.186
  O      202.268    -936.646     965.728
  C      204.234    -935.364     965.159
  O      204.441    -936.087     963.908
  C      203.402    -934.138     964.772
  O      203.443    -933.149     965.782
  C      204.071    -933.749     963.452
  O      205.254    -932.980     963.690
  C      204.423    -935.144     962.835
  N      203.464    -935.515     961.795
  C      203.578    -934.837     960.600
  O      204.410    -933.956     960.376
  N      202.651    -935.155     959.634
  C      201.550    -935.983     959.840
  O      200.624    -936.047     959.056
  C      201.538    -936.726     961.107
  C      202.471    -936.453     962.011
  O      200.944    -937.140     967.931
  O      200.244    -938.126     965.677
  H      199.461    -938.305     966.221
  H      204.974    -932.137     964.082
  H      202.683    -934.627     958.790
  H      200.746    -937.423     961.268
  H      202.465    -936.972     962.988
  H      205.434    -935.103     962.402
  H      203.413    -933.139     962.827
  H      202.367    -934.445     964.567
  H      205.219    -935.061     965.541
  H      204.157    -937.172     966.337
  H      203.459    -935.748     967.152
  P      202.108    -932.281     966.090
  C      201.348    -933.913     967.914
  O      201.670    -932.555     967.599
  O      201.016    -932.399     965.077
  O      202.674    -930.767     966.156
  H      202.124    -930.205     965.593
  H      201.069    -933.984     968.945
  H      202.201    -934.533     967.732
  H      200.533    -934.238     967.301

 6  7  8  9  10  11  12  13  14  15  16  27  31  32  33  34  35 0
 6-311+G(2d,p)
 ****
 36  37 0
 6-311+G(2d,p)
 ****
 1  2  3  4  5  17  18  19  20  21  22  23  24  25 0
 3-21G
 ****
 26  28  29  30  38  39  40  41  42  43  44  45 0
 3-21G
 ****


