%nproc=1
%NoSave
%Mem=1900MB
#P OB98/GEN NMR

erre ene a

0 1
  C      173.502    -303.229     475.738
  O      172.864    -304.206     476.535
  H      174.392    -303.675     475.286
  H      173.814    -302.382     476.356
  H      172.841    -302.883     474.941
  P      171.440    -303.862     477.181
  C      172.433    -303.806     479.561
  O      171.726    -303.087     478.557
  C      172.503    -302.978     480.840
  O      173.461    -301.904     480.685
  C      171.189    -302.299     481.205
  O      170.261    -303.216     481.747
  C      171.677    -301.230     482.167
  O      171.871    -301.764     483.481
  C      173.029    -300.824     481.540
  N      172.935    -299.567     480.796
  C      173.202    -298.407     481.509
  O      173.510    -298.398     482.704
  N      173.036    -297.233     480.824
  C      172.507    -297.112     479.569
  O      172.149    -296.040     479.093
  C      172.308    -298.371     478.841
  C      172.514    -299.525     479.479
  O      170.481    -305.002     477.283
  O      170.866    -302.704     476.233
  H      170.203    -303.084     475.627
  H      170.973    -301.908     483.849
  H      173.186    -296.381     481.352
  H      171.958    -298.317     477.817
  H      172.339    -300.470     478.973
  H      173.794    -300.711     482.318
  H      170.969    -300.404     482.244
  H      170.763    -301.812     480.318
  H      172.848    -303.628     481.655
  H      173.450    -304.003     479.200
  H      171.928    -304.759     479.740
  P      168.884    -302.699     482.377
  C      169.102    -304.273     484.399
  O      168.940    -302.926     483.964
  O      167.647    -303.211     481.715
  O      168.976    -301.103     482.248
  H      168.152    -300.772     481.837
  H      169.126    -304.302     485.468
  H      170.019    -304.665     484.011
  H      168.283    -304.863     484.044

 6  7  8  9  10  11  12  13  14  15  16  27  31  32  33  34  35 0
 6-311+G(2d,p)
 ****
 36  37 0
 6-311+G(2d,p)
 ****
 1  2  3  4  5  17  18  19  20  21  22  23  24  25 0
 3-21G
 ****
 26  28  29  30  38  39  40  41  42  43  44  45 0
 3-21G
 ****


