%nproc=1
%NoSave
%Mem=1900MB
#P OB98/GEN NMR

erre ene a

0 1
  C      103.444     135.556      41.163
  O      103.917     135.200      39.850
  P      104.950     133.976      39.698
  C      107.507     133.610      39.285
  O      106.430     134.531      39.394
  C      108.685     134.221      38.508
  O      108.307     134.451      37.108
  C      109.188     135.564      39.059
  O      110.599     135.625      38.822
  C      108.469     136.571      38.172
  O      109.075     137.854      38.177
  C      108.536     135.847      36.832
  N      107.578     136.338      35.829
  C      107.915     137.485      35.110
  O      108.942     138.139      35.293
  N      106.999     137.867      34.165
  C      105.800     137.275      33.900
  O      105.014     137.686      33.067
  C      105.488     136.090      34.721
  C      106.377     135.683      35.629
  O      104.526     133.349      38.284
  O      104.874     132.931      40.768
  H      110.013     137.731      37.951
  H      104.473     132.380      38.359
  H      107.234     138.682      33.611
  H      104.540     135.587      34.543
  H      106.168     134.803      36.239
  H      109.552     135.927      36.421
  H      107.436     136.687      38.532
  H      108.973     135.698      40.128
  H      109.502     133.486      38.497
  H      107.165     132.713      38.759
  H      107.827     133.311      40.288
  P      111.591     135.578      40.096
  C      112.488     137.365      41.791
  O      111.661     137.067      40.693
  O      113.004     135.417      39.349
  O      111.296     134.491      41.064
  H      113.104     136.013      38.592
  H      113.457     136.857      41.717
  H      111.979     137.064      42.723
  H      112.667     138.445      41.820
  H      102.770     136.384      41.087
  H      104.275     135.828      41.780
  H      102.936     134.721      41.598

 3  4  5  6  7  8  9  10  11  12  13  23  28  29  30  31  32 0
 6-311+G(2d,p)
 ****
 33  34 0
 6-311+G(2d,p)
 ****
 1  2  14  15  16  17  18  19  20  21  22  24  25  26 0
 3-21G
 ****
 27  35  36  37  38  39  40  41  42  43  44  45 0
 3-21G
 ****


