%nproc=1
%NoSave
%Mem=1900MB
#P OB98/GEN NMR

erre ene a

0 1
  C     -470.122    -385.297     841.546
  O     -469.391    -386.395     841.030
  P     -468.991    -386.347     839.473
  C     -466.579    -385.430     839.920
  O     -467.394    -386.477     839.414
  C     -465.133    -385.913     840.036
  O     -465.046    -387.032     840.941
  C     -464.524    -386.376     838.714
  O     -464.069    -385.270     837.966
  C     -463.402    -387.288     839.207
  O     -462.247    -386.517     839.594
  C     -464.051    -387.956     840.430
  N     -463.317    -392.965     840.320
  C     -462.415    -391.932     840.503
  N     -461.129    -392.299     840.733
  N     -462.727    -390.664     840.468
  C     -464.043    -390.454     840.216
  C     -465.036    -391.382     839.998
  C     -464.678    -392.783     840.093
  O     -465.457    -393.723     840.034
  N     -466.238    -390.786     839.755
  C     -465.981    -389.498     839.846
  N     -464.671    -389.240     840.141
  O     -469.270    -384.819     839.077
  O     -469.725    -387.310     838.600
  H     -461.898    -386.053     838.818
  H     -470.134    -384.729     838.636
  H     -463.020    -393.922     840.378
  H     -466.722    -388.711     839.727
  H     -463.324    -388.138     841.233
  H     -463.069    -387.988     838.433
  H     -460.806    -393.256     840.754
  H     -465.253    -386.963     838.143
  H     -460.447    -391.559     840.860
  H     -464.540    -385.090     840.460
  H     -466.941    -385.141     840.910
  H     -466.653    -384.567     839.250
  P     -463.952    -385.451     836.377
  C     -465.712    -383.688     835.641
  O     -464.346    -384.058     835.704
  O     -465.192    -386.412     836.022
  O     -462.666    -386.045     835.912
  H     -464.939    -387.026     835.300
  H     -465.784    -382.598     835.669
  H     -466.281    -384.104     836.481
  H     -466.150    -384.045     834.705
  H     -470.320    -385.457     842.585
  H     -471.047    -385.204     841.017
  H     -469.551    -384.400     841.426

 3  4  5  6  7  8  9  10  11  12  23  26  30  31 0
 6-311+G(2d,p)
 ****
 33  35  36  37  38 0
 6-311+G(2d,p)
 ****
 1  2  13  14  15  16  17  18  19  20  21  22  24  25 0
 3-21G
 ****
 27  28  29  32  34  39  40  41  42  43  44  45  46  47  48  49 0
 3-21G
 ****


