%nproc=1
%NoSave
%Mem=1900MB
#P OB98/GEN NMR

erre ene a

0 1
  C       37.321      59.918      85.255
  O       36.501      59.055      86.018
  H       38.164      59.345      84.862
  H       37.706      60.723      85.888
  H       36.757      60.340      84.419
  P       35.114      59.653      86.547
  C       35.834      58.988      88.983
  O       35.300      59.976      88.110
  C       35.109      59.034      90.326
  O       35.000      60.386      90.814
  C       33.670      58.553      90.267
  O       33.566      57.159      90.085
  C       33.160      59.041      91.614
  O       33.574      58.165      92.672
  C       33.872      60.412      91.730
  N       32.978      61.528      91.455
  C       32.418      62.151      92.578
  O       32.698      61.758      93.710
  N       31.535      63.184      92.384
  C       31.255      63.577      91.182
  N       30.366      64.599      91.058
  C       31.842      62.967      89.973
  C       32.682      61.954      90.182
  O       34.162      58.369      86.562
  O       34.580      60.810      85.767
  H       34.549      58.120      92.626
  H       34.528      57.618      87.060
  H       31.586      63.334      88.990
  H       33.156      61.450      89.350
  H       34.285      60.547      92.738
  H       32.071      59.087      91.649
  H       33.122      59.094      89.485
  H       35.698      58.455      91.049
  H       29.968      64.979      91.907
  H       36.910      59.128      89.119
  H       30.048      64.966      90.174
  H       35.685      58.013      88.507
  P       32.245      56.515      89.445
  C       31.565      55.234      91.571
  O       31.226      56.277      90.663
  O       32.474      55.319      88.585
  O       31.570      57.749      88.677
  H       31.339      58.505      89.246
  H       30.818      55.169      92.335
  H       32.515      55.444      92.017
  H       31.617      54.305      91.043

 6  7  8  9  10  11  12  13  14  15  16  26  30  31  32  33  35 0
 6-311+G(2d,p)
 ****
 37  38 0
 6-311+G(2d,p)
 ****
 1  2  3  4  5  17  18  19  20  21  22  23  24  25 0
 3-21G
 ****
 27  28  29  34  36  39  40  41  42  43  44  45  46 0
 3-21G
 ****


