%nproc=1
%NoSave
%Mem=1900MB
#P OB98/GEN NMR

erre ene a

0 1
  C     -216.060     -20.152      41.274
  O     -217.272     -19.428      41.416
  P     -218.644     -20.173      41.801
  C     -219.806     -22.245      40.779
  O     -218.969     -21.117      40.548
  C     -220.580     -22.587      39.506
  O     -221.408     -21.469      39.131
  C     -219.702     -22.880      38.296
  O     -219.136     -24.179      38.377
  C     -220.704     -22.670      37.161
  O     -221.541     -23.828      37.014
  C     -221.536     -21.481      37.691
  N     -221.129     -20.204      37.112
  C     -221.897     -19.733      36.038
  O     -222.861     -20.371      35.618
  N     -221.565     -18.521      35.476
  C     -220.553     -17.846      35.932
  N     -220.316     -16.622      35.382
  C     -219.687     -18.331      37.025
  C     -220.036     -19.501      37.566
  O     -219.757     -19.264      42.204
  O     -218.226     -21.225      42.929
  H     -222.313     -23.550      36.477
  H     -218.257     -20.855      43.849
  H     -218.847     -17.741      37.362
  H     -219.465     -19.915      38.389
  H     -222.601     -21.643      37.479
  H     -220.229     -22.473      36.192
  H     -218.898     -22.138      38.217
  H     -221.233     -23.442      39.724
  H     -221.033     -16.257      34.765
  H     -220.515     -21.996      41.577
  H     -219.749     -15.929      35.860
  H     -219.191     -23.092      41.105
  P     -217.607     -24.350      37.923
  C     -216.409     -24.031      35.642
  O     -217.621     -24.328      36.317
  O     -217.279     -25.870      38.301
  O     -216.660     -23.387      38.567
  H     -216.769     -25.911      39.131
  H     -216.529     -24.289      34.584
  H     -215.583     -24.616      36.057
  H     -216.190     -22.963      35.719
  H     -215.270     -19.478      41.017
  H     -216.170     -20.884      40.501
  H     -215.826     -20.641      42.197

 3  4  5  6  7  8  9  10  11  12  13  23  27  28  29  30  32 0
 6-311+G(2d,p)
 ****
 34  35 0
 6-311+G(2d,p)
 ****
 1  2  14  15  16  17  18  19  20  21  22  24  25  26 0
 3-21G
 ****
 31  33  36  37  38  39  40  41  42  43  44  45  46 0
 3-21G
 ****


