%nproc=1
%NoSave
%Mem=1900MB
#P OB98/GEN NMR

erre ene a

0 1
  C     -427.770    -571.480     736.839
  O     -428.928    -571.973     737.490
  H     -428.077    -570.995     735.901
  H     -427.082    -572.295     736.610
  H     -427.275    -570.743     737.473
  P     -428.680    -572.818     738.839
  C     -429.102    -575.115     737.657
  O     -429.555    -574.148     738.615
  C     -429.256    -576.513     738.234
  O     -428.344    -576.714     739.339
  C     -430.645    -576.828     738.802
  O     -431.609    -577.110     737.785
  C     -430.314    -578.057     739.635
  O     -430.121    -579.195     738.765
  C     -428.992    -577.617     740.291
  N     -429.189    -576.961     741.584
  C     -429.453    -577.779     742.683
  O     -429.518    -579.007     742.550
  N     -429.670    -577.205     743.906
  C     -429.600    -575.907     744.036
  N     -429.831    -575.401     745.283
  C     -429.306    -574.995     742.915
  C     -429.103    -575.589     741.731
  O     -429.538    -572.019     739.938
  O     -427.258    -573.047     739.213
  H     -430.014    -579.971     739.344
  H     -429.576    -572.536     740.778
  H     -429.263    -573.934     743.073
  H     -428.876    -574.979     740.857
  H     -428.314    -578.481     740.438
  H     -431.107    -578.324     740.327
  H     -430.998    -576.029     739.451
  H     -428.967    -577.231     737.436
  H     -430.081    -576.040     746.022
  H     -428.046    -574.905     737.445
  H     -429.948    -574.404     745.453
  H     -429.685    -575.033     736.734
  P     -432.971    -576.264     737.815
  C     -434.276    -577.892     739.383
  O     -434.158    -577.314     738.086
  O     -433.175    -575.856     736.284
  O     -432.953    -575.074     738.715
  H     -433.592    -574.973     736.212
  H     -435.109    -578.564     739.400
  H     -434.428    -577.118     740.106
  H     -433.380    -578.428     739.617

 6  7  8  9  10  11  12  13  14  15  16  26  30  31  32  33  35 0
 6-311+G(2d,p)
 ****
 37  38 0
 6-311+G(2d,p)
 ****
 1  2  3  4  5  17  18  19  20  21  22  23  24  25 0
 3-21G
 ****
 27  28  29  34  36  39  40  41  42  43  44  45  46 0
 3-21G
 ****


