%nproc=1
%NoSave
%Mem=1900MB
#P OB98/GEN NMR

erre ene a

0 1
  C     -123.262     560.466    -155.550
  O     -122.940     561.423    -156.535
  P     -122.431     562.884    -156.134
  C     -124.179     564.017    -157.636
  O     -122.801     563.893    -157.332
  C     -124.387     564.611    -159.026
  O     -123.711     565.888    -159.114
  C     -123.879     563.734    -160.177
  O     -124.808     563.854    -161.254
  C     -122.555     564.371    -160.536
  O     -122.143     564.048    -161.857
  C     -122.880     565.849    -160.290
  N     -121.681     566.654    -160.115
  C     -121.167     567.262    -161.267
  O     -121.635     567.007    -162.373
  N     -120.108     568.141    -161.124
  C     -119.518     568.252    -159.969
  N     -118.529     569.186    -159.865
  C     -119.886     567.431    -158.802
  C     -120.984     566.699    -158.926
  O     -121.005     562.962    -155.682
  O     -123.424     563.344    -154.960
  H     -122.899     563.623    -154.183
  H     -121.260     564.451    -162.018
  H     -119.289     567.465    -157.899
  H     -121.357     566.092    -158.110
  H     -123.465     566.257    -161.117
  H     -121.776     564.027    -159.842
  H     -123.798     562.678    -159.896
  H     -125.467     564.806    -159.150
  H     -118.324     569.744    -160.677
  H     -124.636     564.671    -156.885
  H     -118.236     569.553    -158.957
  H     -124.669     563.038    -157.551
  P     -125.087     562.567    -162.179
  C     -124.525     563.845    -164.370
  O     -125.480     563.097    -163.644
  O     -126.508     562.057    -161.619
  O     -124.089     561.459    -162.093
  H     -126.599     561.106    -161.802
  H     -124.983     564.177    -165.305
  H     -123.650     563.231    -164.607
  H     -124.222     564.732    -163.805
  H     -123.580     559.560    -156.023
  H     -124.051     560.841    -154.932
  H     -122.400     560.270    -154.947

 3  4  5  6  7  8  9  10  11  12  13  24  27  28  29  30  32 0
 6-311+G(2d,p)
 ****
 34  35 0
 6-311+G(2d,p)
 ****
 1  2  14  15  16  17  18  19  20  21  22  23  25  26 0
 3-21G
 ****
 31  33  36  37  38  39  40  41  42  43  44  45  46 0
 3-21G
 ****


