%nproc=1
%NoSave
%Mem=1900MB
#P OB98/GEN NMR

erre ene a

0 1
  C      104.082     224.594     110.873
  O      104.895     224.715     109.725
  H      103.119     224.168     110.580
  H      103.908     225.579     111.312
  H      104.551     223.934     111.611
  P      106.418     225.173     109.941
  C      107.444     222.789     109.880
  O      107.338     224.055     109.246
  C      108.129     221.781     108.952
  O      107.219     221.455     107.871
  C      109.429     222.303     108.335
  O      110.369     221.222     108.272
  C      109.026     222.700     106.926
  O      110.120     222.673     106.010
  C      107.911     221.691     106.626
  N      107.007     222.186     105.586
  C      107.505     222.202     104.282
  O      108.656     221.826     104.048
  N      106.714     222.704     103.277
  C      105.557     223.220     103.567
  N      104.832     223.725     102.532
  C      105.024     223.280     104.943
  C      105.787     222.743     105.892
  O      106.660     224.928     111.503
  O      106.727     226.574     109.528
  H      110.457     221.754     105.962
  H      107.293     225.575     111.870
  H      104.064     223.744     105.138
  H      105.481     222.750     106.931
  H      108.336     220.733     106.295
  H      108.620     223.721     106.935
  H      109.869     223.135     108.890
  H      108.304     220.855     109.515
  H      105.242     223.679     101.606
  H      106.439     222.424     110.120
  H      103.942     224.190     102.648
  H      108.012     222.893     110.813
  P      111.729     221.404     109.100
  C      111.298     219.566     110.887
  O      112.091     219.998     109.789
  O      111.295     222.330     110.334
  O      112.835     222.024     108.307
  H      111.660     223.226     110.222
  H      111.657     218.621     111.236
  H      110.280     219.467     110.574
  H      111.360     220.285     111.677

 6  7  8  9  10  11  12  13  14  15  16  26  30  31  32  33  35 0
 6-311+G(2d,p)
 ****
 37  38 0
 6-311+G(2d,p)
 ****
 1  2  3  4  5  17  18  19  20  21  22  23  24  25 0
 3-21G
 ****
 27  28  29  34  36  39  40  41  42  43  44  45  46 0
 3-21G
 ****


