%nproc=1
%NoSave
%Mem=1900MB
#P OB98/GEN NMR

erre ene a

0 1
  C       16.815     207.651     103.821
  O       16.690     206.245     103.709
  H       17.046     207.901     104.860
  H       15.874     208.134     103.538
  H       17.625     208.011     103.181
  P       16.366     205.671     102.248
  C       18.566     206.099     100.916
  O       17.767     205.178     101.645
  C       18.936     205.516      99.546
  O       19.637     206.540      98.777
  C       19.872     204.298      99.621
  O       19.617     203.474      98.472
  C       21.239     204.952      99.483
  O       22.234     203.995      99.201
  C       20.920     205.984      98.405
  N       23.191     209.238      95.180
  C       22.180     208.359      95.008
  N       21.622     207.536      95.916
  C       22.195     207.695      97.122
  C       23.228     208.558      97.453
  C       23.737     209.358      96.416
  N       24.771     210.249      96.589
  N       23.552     208.436      98.794
  C       22.729     207.517      99.262
  N       21.899     207.037      98.285
  O       16.028     206.987     101.403
  O       15.266     204.666     102.183
  H       23.103     204.424      99.064
  H       15.063     207.131     101.381
  H       21.771     208.308      94.001
  H       22.699     207.160     100.281
  H       20.805     205.519      97.418
  H       21.533     205.441     100.418
  H       19.745     203.708     100.531
  H       18.018     205.282      98.996
  H       19.475     206.302     101.492
  H       18.011     207.033     100.774
  H       25.087     210.772      95.788
  H       25.199     210.335      97.499
  P       19.021     201.993      98.689
  C       16.625     202.362      99.680
  O       17.425     202.060      98.544
  O       19.201     201.791     100.269
  O       19.704     200.903      97.934
  H       19.300     200.841     100.465
  H       15.593     202.364      99.399
  H       16.893     203.326     100.059
  H       16.787     201.623     100.437

 6  7  8  9  10  11  12  13  14  15  25  28  32  33  34  35 0
 6-311+G(2d,p)
 ****
 36  37  40 0
 6-311+G(2d,p)
 ****
 1  2  3  4  5  16  17  18  19  20  21  22  23  24 0
 3-21G
 ****
 26  27  29  30  31  38  39 41  42  43  44  45  46  47  48 0
 3-21G
 ****


