%nproc=1
%NoSave
%Mem=1900MB
#P OB98/GEN NMR

erre ene a

0 1
  C     -893.500     943.993    -213.020
  O     -893.600     944.734    -211.809
  P     -892.370     945.690    -211.402
  C     -894.060     947.613    -211.086
  O     -893.010     946.865    -210.515
  C     -894.740     948.503    -210.025
  O     -893.800     949.499    -209.543
  C     -895.920     949.301    -210.529
  O     -897.110     948.515    -210.523
  C     -896.030     950.375    -209.445
  O     -896.640     949.861    -208.283
  C     -894.530     950.691    -209.200
  N     -894.310     955.801    -209.397
  C     -894.960     954.949    -208.549
  N     -894.980     953.618    -208.576
  C     -894.260     953.118    -209.612
  C     -893.580     953.875    -210.577
  C     -893.610     955.266    -210.419
  N     -892.910     956.121    -211.299
  N     -892.970     953.032    -211.483
  C     -893.270     951.807    -211.085
  N     -894.040     951.811    -209.934
  O     -892.010     946.404    -212.770
  O     -891.200     944.982    -210.817
  H     -896.220     948.983    -208.108
  H     -891.080     946.717    -212.762
  H     -895.540     955.429    -207.771
  H     -892.930     950.896    -211.578
  H     -894.340     950.876    -208.126
  H     -896.600     951.250    -209.773
  H     -895.740     949.741    -211.506
  H     -895.010     947.862    -209.179
  H     -894.830     946.940    -211.503
  H     -892.850     957.090    -211.018
  H     -892.250     955.705    -211.959
  H     -893.660     948.242    -211.909
  P     -898.160     948.792    -211.740
  C     -899.080     946.475    -211.027
  O     -899.360     947.766    -211.496
  O     -897.370     948.154    -213.005
  O     -898.510     950.222    -211.935
  H     -897.660     948.588    -213.845
  H     -900.000     946.027    -210.621
  H     -898.310     946.478    -210.228
  H     -898.720     945.836    -211.854
  H     -894.386     943.409    -213.155
  H     -892.649     943.346    -212.973
  H     -893.389     944.668    -213.843

 3  4  5  6  7  8  9  10  11  12  22  25  29  30  31  32 0
 6-311+G(2d,p)
 ****
 33  36  37 0
 6-311+G(2d,p)
 ****
 1  2  13  14  15  16  17  18  19  20  21  23  24  26 0
 3-21G
 ****
 27  28  34  35  38  39  40  41  42  43  44  45  46  47  48 0
 3-21G
 ****


