%nproc=1
%NoSave
%Mem=1900MB
#P OB98/GEN NMR

erre ene a

0 1
  C      324.252     169.155     -90.697
  O      322.824     169.232     -90.676
  P      322.054     167.916     -90.167
  C      320.451     169.291     -88.659
  O      320.571     168.351     -89.722
  C      318.989     169.676     -88.413
  O      318.518     170.622     -89.414
  C      318.020     168.482     -88.447
  O      316.991     168.753     -87.483
  C      317.431     168.563     -89.843
  O      316.214     167.826     -89.946
  C      317.304     170.075     -89.984
  N      313.942     170.648     -93.710
  C      313.800     170.068     -92.471
  N      312.567     169.620     -92.147
  N      314.775     169.940     -91.608
  C      315.951     170.473     -92.050
  C      316.217     171.095     -93.254
  C      315.121     171.196     -94.204
  O      315.195     171.706     -95.314
  N      317.515     171.532     -93.313
  C      318.047     171.110     -92.176
  N      317.129     170.523     -91.346
  O      322.788     167.578     -88.783
  O      322.116     166.773     -91.118
  H      315.927     167.879     -90.881
  H      323.433     166.862     -88.909
  H      313.158     170.706     -94.338
  H      319.080     171.239     -91.889
  H      316.448     170.477     -89.417
  H      318.144     168.161     -90.581
  H      311.761     169.724     -92.745
  H      318.488     167.512     -88.238
  H      312.429     169.221     -91.226
  H      318.924     170.178     -87.437
  H      321.020     170.196     -88.895
  H      320.909     168.872     -87.758
  P      317.209     168.224     -85.992
  C      315.538     169.944     -84.997
  O      315.881     168.579     -85.163
  O      318.297     169.245     -85.400
  O      317.685     166.810     -85.886
  H      318.927     168.761     -84.830
  H      314.462     170.014     -84.859
  H      315.823     170.538     -85.864
  H      316.042     170.336     -84.107
  H      324.654     170.081     -91.051
  H      324.557     168.362     -91.348
  H      324.613     168.964     -89.708

 3  4  5  6  7  8  9  10  11  12  23  26  30  31 0
 6-311+G(2d,p)
 ****
 33  35  36  37  38 0
 6-311+G(2d,p)
 ****
 1  2  13  14  15  16  17  18  19  20  21  22  24  25 0
 3-21G
 ****
 27  28  29  32  34  39  40  41  42  43  44  45  46  47  48  49 0
 3-21G
 ****


