%nproc=1
%NoSave
%Mem=1900MB
#P OB98/GEN NMR

erre ene a

0 1
  C       -7.865     180.227    -125.287
  O       -7.853     181.000    -124.105
  P       -6.697     180.907    -123.008
  C       -5.154     182.857    -123.759
  O       -6.083     182.378    -122.795
  C       -5.089     184.391    -123.819
  O       -6.295     184.902    -124.416
  C       -5.026     184.970    -122.402
  O       -3.791     185.056    -121.719
  C       -5.811     186.274    -122.474
  O       -4.965     187.417    -122.620
  C       -6.687     186.095    -123.717
  N      -11.075     188.628    -123.506
  C       -9.895     188.986    -124.131
  N       -9.827     190.254    -124.588
  N       -8.874     188.176    -124.267
  C       -9.059     186.974    -123.669
  C      -10.187     186.500    -123.040
  C      -11.320     187.389    -122.933
  O      -12.352     187.147    -122.314
  N       -9.986     185.259    -122.492
  C       -8.722     184.992    -122.758
  N       -8.107     186.020    -123.437
  O       -5.757     179.750    -123.116
  O       -7.557     180.702    -121.657
  H       -4.482     187.538    -121.783
  H       -7.041     180.121    -121.064
  H      -11.799     189.322    -123.362
  H       -8.201     184.095    -122.453
  H       -6.543     186.928    -124.415
  H       -6.384     186.433    -121.552
  H      -10.535     190.943    -124.373
  H       -5.634     184.313    -121.765
  H       -8.925     190.599    -124.896
  H       -4.271     184.724    -124.466
  H       -5.447     182.447    -124.729
  H       -4.159     182.466    -123.532
  P       -3.583     185.231    -120.142
  C       -1.807     183.394    -120.122
  O       -2.116     184.729    -119.766
  O       -4.524     184.109    -119.493
  O       -3.947     186.580    -119.608
  H       -4.741     184.351    -118.570
  H       -0.926     183.068    -119.566
  H       -1.586     183.345    -121.193
  H       -2.644     182.726    -119.893
  H       -8.737     180.465    -125.860
  H       -7.878     179.188    -125.033
  H       -6.990     180.443    -125.863

 3  4  5  6  7  8  9  10  11  12  23  26  30  31 0
 6-311+G(2d,p)
 ****
 33  35  36  37  38 0
 6-311+G(2d,p)
 ****
 1  2  13  14  15  16  17  18  19  20  21  22  24  25 0
 3-21G
 ****
 27  28  29  32  34  39  40  41  42  43  44  45  46  47  48  49 0
 3-21G
 ****


