%nproc=1
%NoSave
%Mem=1900MB
#P OB98/GEN NMR

erre ene a

0 1
  C      250.207     241.818    -101.241
  O      250.367     241.093    -100.017
  P      249.626     241.712     -98.730
  C      248.991     239.426     -97.678
  O      249.727     240.636     -97.539
  C      249.238     238.480     -96.499
  O      250.560     237.873     -96.582
  C      249.152     239.170     -95.128
  O      248.597     238.208     -94.215
  C      250.609     239.405     -94.776
  O      250.785     239.636     -93.381
  C      251.221     238.116     -95.315
  N      255.648     238.118     -92.883
  C      254.363     238.142     -92.386
  N      254.232     238.106     -91.042
  N      253.293     238.191     -93.136
  C      253.573     238.178     -94.468
  C      254.805     238.138     -95.090
  C      255.978     238.118     -94.232
  O      257.138     238.091     -94.623
  N      254.679     238.103     -96.454
  C      253.372     238.193     -96.653
  N      252.654     238.177     -95.489
  O      248.079     241.678     -99.150
  O      250.075     243.088     -98.379
  H      250.491     238.823     -92.918
  H      247.790     242.560     -99.442
  H      256.433     238.099     -92.259
  H      252.894     238.240     -97.622
  H      251.026     237.255     -94.656
  H      250.996     240.279     -95.322
  H      255.007     238.025     -90.406
  H      248.558     240.090     -95.119
  H      253.293     238.084     -90.653
  H      248.503     237.667     -96.550
  H      249.280     238.920     -98.604
  H      247.928     239.665     -97.781
  P      247.473     238.711     -93.196
  C      245.823     236.787     -93.758
  O      246.611     237.426     -92.770
  O      246.470     239.530     -94.144
  O      247.972     239.563     -92.076
  H      246.145     240.322     -93.670
  H      245.696     235.744     -93.477
  H      246.293     236.836     -94.741
  H      244.840     237.271     -93.803
  H      250.739     241.318    -102.024
  H      250.595     242.808    -101.122
  H      249.168     241.869    -101.492

 3  4  5  6  7  8  9  10  11  12  23  26  30  31 0
 6-311+G(2d,p)
 ****
 33  35  36  37  38 0
 6-311+G(2d,p)
 ****
 1  2  13  14  15  16  17  18  19  20  21  22  24  25 0
 3-21G
 ****
 27  28  29  32  34  39  40  41  42  43  44  45  46  47  48  49 0
 3-21G
 ****


