%nproc=1
%NoSave
%Mem=1900MB
#P OB98/GEN NMR

erre ene a

0 1
  C      -69.146    -474.655     -58.994
  O      -68.071    -474.797     -58.060
  P      -67.859    -476.269     -57.442
  C      -65.274    -476.262     -57.712
  O      -66.382    -476.338     -56.816
  C      -63.945    -476.162     -56.961
  O      -63.741    -474.792     -56.529
  C      -63.835    -477.047     -55.714
  O      -62.495    -477.541     -55.613
  C      -64.047    -476.067     -54.569
  O      -63.491    -476.538     -53.349
  C      -63.364    -474.826     -55.146
  N      -63.190    -472.178     -50.839
  C      -62.554    -473.351     -51.175
  N      -61.772    -473.914     -50.222
  N      -62.662    -473.929     -52.343
  C      -63.448    -473.240     -53.211
  C      -64.128    -472.064     -52.997
  C      -64.026    -471.460     -51.683
  O      -64.613    -470.449     -51.305
  N      -64.823    -471.674     -54.114
  C      -64.569    -472.618     -55.000
  N      -63.750    -473.596     -54.494
  O      -67.778    -477.204     -58.740
  O      -68.956    -476.701     -56.527
  H      -63.586    -475.817     -52.694
  H      -68.454    -477.901     -58.691
  H      -63.088    -471.788     -49.917
  H      -64.972    -472.658     -56.004
  H      -62.271    -474.912     -55.091
  H      -65.118    -475.908     -54.423
  H      -61.594    -473.487     -49.327
  H      -64.547    -477.881     -55.688
  H      -61.258    -474.751     -50.466
  H      -63.142    -476.400     -57.668
  H      -65.392    -475.387     -58.354
  H      -65.284    -477.155     -58.348
  P      -62.324    -479.136     -55.561
  C      -60.285    -478.942     -57.167
  O      -60.794    -479.421     -55.938
  O      -63.134    -479.635     -56.853
  O      -62.819    -479.763     -54.304
  H      -63.460    -480.542     -56.716
  H      -60.969    -478.238     -57.652
  H      -60.118    -479.790     -57.841
  H      -59.332    -478.440     -56.985
  H      -69.190    -473.642     -59.335
  H      -70.069    -474.912     -58.517
  H      -68.982    -475.305     -59.828

 3  4  5  6  7  8  9  10  11  12  23  26  30  31  33  0
 6-311+G(2d,p)
 ****
 35  36  37  38 0
 6-311+G(2d,p)
 ****
 1  2  13  14  15  16  17  18  19  20  21  22  24  25  27  28  29 0
 3-21G
 ****
 32  34  39  40  41  42  43  44  45  46  47  48  49 0
 3-21G
 ****


