%nproc=1
%NoSave
%Mem=1900MB
#P OB98/GEN NMR

erre ene a

0 1
  C      525.637     235.160     202.996
  O      525.181     234.786     204.288
  P      524.108     235.731     205.004
  C      525.741     236.592     206.830
  O      524.559     235.867     206.541
  C      526.023     236.599     208.336
  O      524.899     237.233     209.016
  C      526.213     235.206     208.956
  O      527.180     235.350     209.996
  C      524.832     234.923     209.530
  O      524.805     233.885     210.484
  C      524.463     236.317     210.035
  N      520.483     234.566     212.739
  C      521.804     234.261     212.770
  N      522.802     234.768     212.018
  C      522.326     235.707     211.182
  C      521.016     236.105     211.015
  C      520.059     235.497     211.850
  N      518.724     235.806     211.811
  N      520.916     237.076     210.029
  C      522.151     237.241     209.612
  N      523.045     236.454     210.282
  O      522.802     234.814     205.084
  O      523.843     237.034     204.300
  H      525.200     233.069     210.121
  H      521.997     235.336     204.915
  H      522.085     233.490     213.488
  H      522.440     237.914     208.815
  H      524.985     236.570     210.969
  H      524.165     234.625     208.712
  H      526.560     234.456     208.237
  H      526.910     237.224     208.523
  H      525.620     237.627     206.497
  H      518.096     235.171     212.290
  H      518.397     236.349     211.008
  H      526.585     236.164     206.282
  P      528.653     234.742     209.781
  C      528.262     232.934     211.572
  O      529.005     234.082     211.206
  O      529.545     236.065     209.808
  O      528.826     233.889     208.572
  H      529.347     236.619     210.591
  H      528.668     232.527     212.509
  H      528.344     232.163     210.794
  H      527.217     233.198     211.734
  H      526.346     234.439     202.646
  H      526.102     236.122     203.047
  H      524.807     235.200     202.322

 3  4  5  6  7  8  9  10  11  12  22  25  29  30  31  32 0
 6-311+G(2d,p)
 ****
 33  36  37 0
 6-311+G(2d,p)
 ****
 1  2  13  14  15  16  17  18  19  20  21  23  24  26 0
 3-21G
 ****
 27  28  34  35  38  39  40  41  42  43  44  45  46  47  48 0
 3-21G
 ****


