%nproc=1
%NoSave
%Mem=1900MB
#P OB98/GEN NMR

erre ene a

0 1
  C      450.286      85.380    -933.571
  O      450.838      86.477    -932.846
  P      452.425      86.497    -932.635
  C      454.072      84.864    -931.453
  O      452.770      85.446    -931.499
  C      454.104      83.721    -930.434
  O      453.313      82.600    -930.899
  C      455.492      83.176    -930.171
  O      456.242      84.001    -929.299
  C      455.190      81.806    -929.570
  O      454.905      81.901    -928.167
  C      453.916      81.403    -930.354
  N      454.197      80.407    -931.400
  C      454.622      79.164    -930.965
  O      454.791      78.900    -929.781
  N      454.892      78.239    -931.944
  C      454.809      78.454    -933.287
  O      455.128      77.613    -934.104
  C      454.376      79.810    -933.701
  C      454.101      80.703    -932.748
  O      452.686      87.913    -931.940
  O      453.224      86.338    -933.906
  H      454.060      82.385    -928.091
  H      453.542      88.288    -932.245
  H      455.191      77.321    -931.642
  H      454.323      80.020    -934.768
  H      453.802      81.700    -933.026
  H      453.172      80.976    -929.669
  H      456.015      81.103    -929.680
  H      456.035      83.026    -931.123
  H      453.665      84.085    -929.491
  H      454.797      85.636    -931.173
  H      454.324      84.487    -932.445
  P      457.836      83.787    -929.254
  C      459.257      81.671    -928.705
  O      458.043      82.363    -928.548
  O      458.249      84.882    -928.148
  O      458.473      83.972    -930.588
  H      457.556      84.995    -927.472
  H      460.113      82.352    -928.749
  H      459.230      81.076    -929.616
  H      459.377      80.990    -927.850
  H      449.224      85.494    -933.636
  H      450.516      84.466    -933.065
  H      450.703      85.357    -934.556

 3  4  5  6  7  8  9  10  11  12  13  23  28  29  30  31  32 0
 6-311+G(2d,p)
 ****
 33  34 0
 6-311+G(2d,p)
 ****
 1  2  14  15  16  17  18  19  20  21  22  24  25  26 0
 3-21G
 ****
 27  35  36  37  38  39  40  41  42  43  44  45 0
 3-21G
 ****


