%nproc=1
%NoSave
%Mem=1900MB
#P OB98/GEN NMR

erre ene a

0 1
  C     -832.792    -100.977    -627.707
  O     -833.356    -102.233    -628.034
  H     -832.324    -101.012    -626.719
  H     -832.024    -100.736    -628.450
  H     -833.564    -100.202    -627.728
  P     -834.432    -102.820    -627.003
  C     -836.120    -104.195    -628.410
  O     -835.816    -102.946    -627.810
  C     -836.970    -103.988    -629.662
  O     -836.183    -103.344    -630.690
  C     -837.499    -105.267    -630.290
  O     -838.631    -105.769    -629.603
  C     -837.865    -104.763    -631.682
  O     -839.143    -104.107    -631.634
  C     -836.753    -103.739    -631.966
  N     -835.458    -105.215    -636.719
  C     -836.623    -104.754    -636.202
  N     -836.897    -104.395    -634.929
  C     -835.808    -104.526    -634.154
  C     -834.557    -104.990    -634.529
  C     -834.399    -105.347    -635.876
  N     -833.216    -105.837    -636.396
  N     -833.688    -104.982    -633.466
  C     -834.398    -104.524    -632.449
  N     -835.690    -104.246    -632.811
  O     -834.699    -101.596    -626.005
  O     -834.006    -104.045    -626.264
  H     -839.233    -103.602    -632.464
  H     -834.843    -101.950    -625.100
  H     -837.447    -104.650    -636.907
  H     -834.016    -104.380    -631.451
  H     -837.155    -102.829    -632.433
  H     -837.932    -105.563    -632.422
  H     -836.711    -106.025    -630.379
  H     -837.795    -103.310    -629.399
  H     -836.679    -104.811    -627.696
  H     -833.110    -105.884    -637.401
  H     -832.428    -105.924    -635.764
  H     -835.186    -104.706    -628.656
  P     -838.701    -107.357    -629.349
  C     -839.497    -107.477    -626.875
  O     -838.394    -107.555    -627.775
  O     -837.362    -107.900    -630.049
  O     -839.914    -108.036    -629.880
  H     -837.468    -108.826    -630.309
  H     -839.151    -107.625    -625.873
  H     -840.212    -108.234    -627.121
  H     -839.955    -106.513    -626.955

 6  7  8  9  10  11  12  13  14  15  25  28  32  33  34  35 0
 6-311+G(2d,p)
 ****
 36  39  40 0
 6-311+G(2d,p)
 ****
 1  2  3  4  5  16  17  18  19  20  21  22  23  24 0
 3-21G
 ****
 26  27  29  30  31  37  38  41  42  43  44  45  46  47  48 0
 3-21G
 ****


