%nproc=1
%NoSave
%Mem=1900MB
#P OB98/GEN NMR

erre ene a

0 1
  C      428.281    -291.717     -34.337
  O      427.556    -290.827     -35.162
  H      428.935    -292.324     -34.966
  H      427.594    -292.380     -33.807
  H      428.898    -291.169     -33.618
  P      426.657    -289.694     -34.477
  C      426.617    -288.847     -36.917
  O      425.950    -288.882     -35.663
  C      425.954    -287.832     -37.855
  O      424.570    -288.237     -38.084
  C      425.922    -286.388     -37.300
  O      425.967    -285.508     -38.430
  C      424.555    -286.370     -36.641
  O      424.146    -285.076     -36.282
  C      423.743    -287.108     -37.721
  N      422.414    -287.549     -37.309
  C      421.341    -287.200     -38.118
  O      421.430    -286.551     -39.160
  N      420.110    -287.631     -37.693
  C      419.863    -288.367     -36.574
  O      418.742    -288.751     -36.257
  C      421.040    -288.701     -35.751
  C      422.243    -288.288     -36.154
  O      427.344    -288.850     -33.452
  O      425.440    -290.520     -33.836
  H      425.578    -290.621     -32.878
  H      424.048    -284.536     -37.096
  H      419.321    -287.390     -38.267
  H      420.881    -289.277     -34.854
  H      423.134    -288.523     -35.578
  H      423.655    -286.478     -38.611
  H      424.584    -286.947     -35.710
  H      426.756    -286.169     -36.629
  H      426.460    -287.868     -38.828
  H      426.558    -289.849     -37.359
  H      427.668    -288.590     -36.764
  P      427.310    -284.796     -38.943
  C      426.683    -285.360     -41.391
  O      427.095    -284.353     -40.469
  O      428.549    -285.606     -38.721
  O      427.381    -283.403     -38.146
  H      428.315    -283.116     -38.073
  H      426.578    -284.930     -42.365
  H      425.744    -285.768     -41.078
  H      427.417    -286.138     -41.421

 6  7  8  9  10  11  12  13  14  15  16  27  31  32  33  34  35 0
 6-311+G(2d,p)
 ****
 36  37 0
 6-311+G(2d,p)
 ****
 1  2  3  4  5  17  18  19  20  21  22  23  24  25 0
 3-21G
 ****
 26  28  29  30  38  39  40  41  42  43  44  45 0
 3-21G
 ****


