%nproc=1
%NoSave
%Mem=1900MB
#P OB98/GEN NMR

erre ene a

0 1
  C       43.428     -56.226      57.069
  O       44.651     -56.479      56.413
  H       43.281     -56.984      57.843
  H       42.601     -56.286      56.358
  H       43.444     -55.239      57.540
  P       45.081     -55.462      55.246
  C       47.459     -54.885      56.134
  O       46.684     -55.579      55.166
  C       47.422     -55.623      57.475
  O       48.085     -56.902      57.332
  C       48.116     -54.861      58.605
  O       47.323     -54.949      59.790
  C       49.436     -55.587      58.786
  O       49.955     -55.445      60.108
  C       49.074     -57.017      58.371
  N       50.244     -57.762      57.911
  C       50.817     -58.659      58.816
  O       50.343     -58.785      59.947
  N       51.940     -59.352      58.443
  C       52.483     -59.124      57.289
  N       53.607     -59.825      56.986
  C       51.941     -58.151      56.320
  C       50.830     -57.517      56.689
  O       44.841     -54.030      55.913
  O       44.378     -55.652      53.944
  H       50.314     -54.535      60.196
  H       44.863     -53.309      55.238
  H       52.438     -57.984      55.376
  H       50.363     -56.782      56.042
  H       48.621     -57.561      59.211
  H       50.177     -55.172      58.091
  H       48.281     -53.811      58.370
  H       46.377     -55.839      57.724
  H       53.955     -60.476      57.679
  H       47.051     -53.878      56.259
  H       54.129     -59.707      56.129
  H       48.493     -54.815      55.784
  P       46.620     -53.586      60.267
  C       44.711     -54.889      61.440
  O       45.743     -53.924      61.569
  O       45.529     -53.311      59.129
  O       47.572     -52.448      60.430
  H       45.859     -52.650      58.493
  H       44.216     -55.010      62.381
  H       45.133     -55.824      61.137
  H       44.006     -54.561      60.705

 6  7  8  9  10  11  12  13  14  15  16  26  30  31  32  33  35 0
 6-311+G(2d,p)
 ****
 37  38 0
 6-311+G(2d,p)
 ****
 1  2  3  4  5  17  18  19  20  21  22  23  24  25 0
 3-21G
 ****
 27  28  29  34  36  39  40  41  42  43  44  45  46 0
 3-21G
 ****


