%nproc=1
%NoSave
%Mem=1900MB
#P OB98/GEN NMR

erre ene a

0 1
  C     1099.466    -891.450     -32.629
  O     1100.874    -891.280     -32.634
  P     1101.730    -891.990     -31.470
  C     1102.310    -894.190     -32.736
  O     1101.587    -893.580     -31.683
  C     1103.322    -895.180     -32.162
  O     1104.119    -894.500     -31.163
  C     1102.709    -896.420     -31.494
  O     1103.621    -897.510     -31.709
  C     1102.705    -896.040     -30.031
  O     1102.639    -897.180     -29.178
  C     1103.992    -895.260     -29.930
  N     1105.690    -894.490     -25.226
  C     1105.806    -895.600     -26.050
  N     1106.539    -896.600     -25.572
  N     1105.283    -895.680     -27.234
  C     1104.576    -894.580     -27.591
  C     1104.361    -893.430     -26.858
  C     1104.981    -893.340     -25.571
  O     1104.967    -892.340     -24.850
  N     1103.534    -892.570     -27.530
  C     1103.333    -893.150     -28.691
  N     1103.984    -894.340     -28.791
  O     1100.839    -891.710     -30.168
  O     1103.153    -891.520     -31.319
  H     1103.374    -897.790     -29.421
  H     1101.156    -890.920     -29.700
  H     1106.145    -894.460     -24.319
  H     1102.735    -892.750     -29.501
  H     1104.875    -895.900     -29.829
  H     1101.831    -895.410     -29.813
  H     1107.017    -896.600     -24.660
  H     1101.723    -896.680     -31.882
  H     1106.679    -897.420     -26.146
  H     1103.998    -895.480     -32.973
  H     1102.860    -893.410     -33.284
  H     1101.620    -894.680     -33.445
  P     1103.072    -899.000     -31.508
  C     1102.833    -899.290     -34.074
  O     1102.207    -899.360     -32.805
  O     1101.951    -898.830     -30.376
  O     1104.111    -900.000     -31.100
  H     1101.914    -899.640     -29.829
  H     1102.312    -899.950     -34.784
  H     1103.875    -899.600     -34.035
  H     1102.802    -898.260     -34.424
  H     1099.040    -890.923     -33.457
  H     1099.063    -891.064     -31.716
  H     1099.232    -892.491     -32.710

 3  4  5  6  7  8  9  10  11  12  23  26  30  31 0
 6-311+G(2d,p)
 ****
 33  35  36  37  38 0
 6-311+G(2d,p)
 ****
 1  2  13  14  15  16  17  18  19  20  21  22  24  25 0
 3-21G
 ****
 27  28  29  32  34  39  40  41  42  43  44  45  46  47  48  49 0
 3-21G
 ****


