%nproc=1
%NoSave
%Mem=1900MB
#P OB98/GEN NMR

erre ene a

0 1
  C      117.531     433.281     316.899
  O      118.738     432.568     317.125
  P      118.664     430.958     317.071
  C      118.093     430.662     319.593
  O      119.025     430.427     318.542
  C      118.602     430.094     320.923
  O      117.703     430.508     321.989
  C      118.677     428.553     320.959
  O      119.810     428.220     321.772
  C      117.368     428.189     321.656
  O      117.340     426.868     322.172
  C      117.292     429.305     322.683
  N      113.720     427.206     325.693
  C      114.988     426.824     325.398
  N      115.894     427.446     324.590
  C      115.368     428.573     324.078
  C      114.080     429.081     324.273
  C      113.240     428.345     325.130
  N      111.944     428.730     325.421
  N      113.908     430.247     323.560
  C      115.050     430.438     322.938
  N      115.963     429.478     323.235
  O      119.963     430.568     316.212
  O      117.409     430.399     316.472
  H      118.109     426.725     322.746
  H      119.786     429.827     315.614
  H      115.323     425.908     325.878
  H      115.262     431.254     322.257
  H      117.998     429.156     323.520
  H      116.544     428.267     320.933
  H      118.794     428.088     319.974
  H      119.583     430.523     321.135
  H      117.145     430.176     319.349
  H      111.364     428.038     325.872
  H      111.538     429.454     324.837
  H      117.897     431.740     319.675
  P      120.900     427.200     321.200
  C      120.310     425.058     322.504
  O      121.178     426.180     322.420
  O      122.222     428.107     321.233
  O      120.599     426.594     319.851
  H      122.346     428.525     322.105
  H      120.665     424.418     323.306
  H      120.314     424.507     321.564
  H      119.294     425.393     322.747
  H      117.720     434.332     316.963
  H      116.809     433.003     317.638
  H      117.154     433.045     315.926

 3  4  5  6  7  8  9  10  11  12  22  25  29  30  31  32 0
 6-311+G(2d,p)
 ****
 33  36  37 0
 6-311+G(2d,p)
 ****
 1  2  13  14  15  16  17  18  19  20  21  23  24  26 0
 3-21G
 ****
 27  28  34  35  38  39  40  41  42  43  44  45  46  47  48 0
 3-21G
 ****


