%nproc=1
%NoSave
%Mem=1900MB
#P OB98/GEN NMR

erre ene a

0 1
  C      222.029     194.693      39.476
  O      222.285     195.771      38.587
  P      221.229     196.981      38.571
  C      223.072     198.809      38.527
  O      221.987     198.227      39.242
  C      222.781     200.275      38.212
  O      222.475     200.991      39.429
  C      223.933     201.026      37.572
  O      224.017     200.804      36.173
  C      223.533     202.466      37.855
  O      222.533     202.888      36.906
  C      222.924     202.365      39.256
  N      224.752     206.132      42.193
  C      223.867     206.135      41.178
  N      223.443     205.089      40.437
  C      224.055     203.955      40.810
  C      225.016     203.809      41.809
  C      225.362     204.963      42.527
  N      226.240     204.952      43.583
  N      225.418     202.493      41.896
  C      224.716     201.859      40.985
  N      223.874     202.695      40.306
  O      220.163     196.550      39.691
  O      220.585     197.239      37.251
  H      222.950     202.878      36.035
  H      219.313     196.993      39.526
  H      223.432     207.100      40.936
  H      224.779     200.793      40.783
  H      222.051     203.010      39.387
  H      224.368     203.167      37.763
  H      224.890     200.809      38.080
  H      221.894     200.311      37.571
  H      223.218     198.266      37.595
  H      226.298     205.779      44.162
  H      226.534     204.054      43.951
  H      223.982     198.724      39.129
  P      225.490     200.775      35.527
  C      225.134     198.560      34.213
  O      225.804     199.226      35.262
  O      226.428     201.156      36.767
  O      225.663     201.691      34.371
  H      227.264     201.552      36.448
  H      225.673     197.637      33.977
  H      225.085     199.180      33.320
  H      224.119     198.299      34.530
  H      222.806     193.963      39.384
  H      221.088     194.246      39.233
  H      222.001     195.059      40.481

 3  4  5  6  7  8  9  10  11  12  22  25  29  30  31  32 0
 6-311+G(2d,p)
 ****
 33  36  37 0
 6-311+G(2d,p)
 ****
 1  2  13  14  15  16  17  18  19  20  21  23  24  26 0
 3-21G
 ****
 27  28  34  35  38  39  40  41  42  43  44  45  46  47  48 0
 3-21G
 ****


