%nproc=1
%NoSave
%Mem=1900MB
#P OB98/GEN NMR

erre ene a

0 1
  C      226.826       3.767     113.166
  O      227.020       4.971     112.451
  H      227.650       3.641     113.874
  H      226.827       2.923     112.471
  H      225.883       3.791     113.723
  P      225.771       5.518     111.603
  C      227.037       4.857     109.433
  O      225.830       4.778     110.178
  C      226.835       4.282     108.034
  O      226.760       2.840     108.090
  C      225.559       4.752     107.341
  O      225.738       6.016     106.715
  C      225.381       3.653     106.306
  O      226.300       3.861     105.211
  C      225.789       2.400     107.097
  N      221.598      -0.393     106.500
  C      222.432       0.167     105.552
  N      222.098      -0.043     104.259
  N      223.495       0.870     105.840
  C      223.695       1.017     107.172
  C      222.936       0.516     108.208
  C      221.772      -0.273     107.874
  O      221.006      -0.800     108.676
  N      223.446       0.874     109.427
  C      224.501       1.607     109.130
  N      224.694       1.728     107.776
  O      226.205       7.025     111.267
  O      224.455       5.477     112.305
  H      227.201       3.831     105.585
  H      225.727       7.631     111.864
  H      220.784      -0.920     106.223
  H      225.159       2.067     109.855
  H      226.280       1.652     106.467
  H      224.376       3.635     105.878
  H      221.280      -0.556     103.967
  H      224.700       4.756     108.026
  H      222.699       0.355     103.547
  H      227.717       4.540     107.435
  H      227.815       4.287     109.953
  H      227.343       5.906     109.365
  P      224.482       7.007     106.638
  C      223.818       5.840     104.418
  O      223.388       6.307     105.689
  O      225.040       8.209     105.739
  O      223.973       7.499     107.949
  H      225.131       9.017     106.282
  H      222.991       5.401     103.901
  H      224.586       5.107     104.549
  H      224.201       6.660     103.847

 6  7  8  9  10  11  12  13  14  15  26  29  33  34 0
 6-311+G(2d,p)
 ****
 36  38  39  40  41 0
 6-311+G(2d,p)
 ****
 1  2  3  4  5  16  17  18  19  20  21  22  23  24  25 0
 3-21G
 ****
 27  28  30  31  32  35  37  42  43  44  45  46  47 0
 3-21G
 ****
 48  49 0
 3-21G
 ****


