%nproc=1
%NoSave
%Mem=1900MB
#P OB98/GEN NMR

erre ene a

0 1
  C     -292.520     309.030    -173.369
  O     -293.414     308.143    -172.727
  H     -292.676     310.047    -173.003
  H     -291.496     308.724    -173.140
  H     -292.666     308.996    -174.451
  P     -294.979     308.442    -172.930
  C     -295.078     310.216    -171.050
  O     -295.227     309.952    -172.436
  C     -295.549     311.634    -170.733
  O     -296.974     311.709    -170.997
  C     -295.311     312.063    -169.275
  O     -294.660     313.339    -169.227
  C     -296.710     312.211    -168.698
  O     -296.806     313.260    -167.741
  C     -297.555     312.481    -169.939
  N     -301.929     313.964    -167.782
  C     -300.830     314.664    -168.150
  N     -299.739     314.227    -168.808
  C     -299.865     312.924    -169.120
  C     -300.931     312.087    -168.835
  C     -301.996     312.654    -168.112
  N     -303.089     311.929    -167.691
  N     -300.695     310.812    -169.308
  C     -299.485     310.866    -169.832
  N     -298.938     312.118    -169.728
  O     -295.672     307.551    -171.792
  O     -295.505     308.105    -174.285
  H     -296.316     312.974    -166.947
  H     -296.259     306.900    -172.219
  H     -300.829     315.714    -167.872
  H     -298.947     310.026    -170.255
  H     -297.517     313.538    -170.234
  H     -296.996     311.268    -168.216
  H     -294.724     311.334    -168.710
  H     -295.057     312.329    -171.423
  H     -294.022     310.119    -170.769
  H     -303.746     312.385    -167.078
  H     -303.087     310.932    -167.837
  H     -295.662     309.483    -170.481
  P     -293.052     313.317    -169.282
  C     -292.544     312.731    -166.799
  O     -292.530     312.295    -168.156
  O     -292.649     314.760    -168.716
  O     -292.500     313.096    -170.649
  H     -292.094     315.229    -169.365
  H     -292.171     311.950    -166.170
  H     -293.546     312.973    -166.512
  H     -291.925     313.598    -166.696

 6  7  8  9  10  11  12  13  14  15  25  28  32  33  34  35 0
 6-311+G(2d,p)
 ****
 36  39  40 0
 6-311+G(2d,p)
 ****
 1  2  3  4  5  16  17  18  19  20  21  22  23  24 0
 3-21G
 ****
 26  27  29  30  31  37  38  41  42  43  44  45  46  47  48 0
 3-21G
 ****


