%nproc=1
%NoSave
%Mem=1900MB
#P OB98/GEN NMR

erre ene a

0 1
  C     -137.987       3.649    -232.504
  O     -137.009       2.670    -232.791
  H     -138.950       3.305    -232.888
  H     -137.728       4.588    -232.999
  H     -138.069       3.805    -231.427
  P     -135.529       2.939    -232.232
  C     -135.357       1.215    -230.303
  O     -135.563       2.572    -230.667
  C     -134.633       1.120    -228.962
  O     -133.329       1.763    -229.083
  C     -135.371       1.796    -227.795
  O     -135.123       1.028    -226.610
  C     -134.642       3.123    -227.658
  O     -134.806       3.708    -226.367
  C     -133.215       2.683    -227.980
  N     -129.460       5.544    -226.242
  C     -130.077       4.440    -225.686
  N     -129.625       4.033    -224.481
  N     -131.052       3.790    -226.263
  C     -131.380       4.287    -227.481
  C     -130.853       5.372    -228.137
  C     -129.789       6.100    -227.475
  O     -129.218       7.097    -227.906
  N     -131.477       5.573    -229.344
  C     -132.378       4.610    -229.415
  N     -132.358       3.805    -228.309
  O     -135.436       4.537    -232.243
  O     -134.425       2.309    -233.012
  H     -134.426       3.091    -225.708
  H     -135.033       4.846    -233.076
  H     -128.722       6.016    -225.749
  H     -133.066       4.454    -230.235
  H     -132.742       2.157    -227.141
  H     -135.011       3.836    -228.406
  H     -128.848       4.454    -224.000
  H     -136.447       1.909    -227.947
  H     -130.036       3.200    -224.078
  H     -134.442       0.064    -228.743
  H     -134.750       0.728    -231.073
  H     -136.326       0.708    -230.240
  P     -136.381       0.611    -225.709
  C     -135.560      -1.807    -226.204
  O     -136.660      -0.950    -225.935
  O     -137.609       1.304    -226.470
  O     -136.291       1.057    -224.286
  H     -138.323       1.501    -225.835
  H     -135.911      -2.810    -226.329
  H     -134.871      -1.770    -225.386
  H     -135.069      -1.487    -227.099

 6  7  8  9  10  11  12  13  14  15  26  29  33  34 0
 6-311+G(2d,p)
 ****
 36  38  39  40  41 0
 6-311+G(2d,p)
 ****
 1  2  3  4  5  16  17  18  19  20  21  22  23  24  25 0
 3-21G
 ****
 27  28  30  31  32  35  37  42  43  44  45  46  47 0
 3-21G
 ****
 48  49 0
 3-21G
 ****


