%nproc=1
%NoSave
%Mem=1900MB
#P OB98/GEN NMR

erre ene a

0 1
  C     -278.355     231.857    -229.548
  O     -278.245     232.082    -230.936
  P     -278.795     233.427    -231.622
  C     -280.778     232.233    -232.742
  O     -279.569     232.956    -232.945
  C     -281.891     232.753    -233.651
  O     -282.403     234.009    -233.128
  C     -281.471     232.990    -235.111
  O     -282.613     232.689    -235.917
  C     -281.198     234.483    -235.122
  O     -281.213     235.029    -236.438
  C     -282.294     234.991    -234.180
  N     -282.000     236.325    -233.664
  C     -282.710     237.392    -234.225
  O     -283.485     237.189    -235.163
  N     -282.489     238.656    -233.753
  C     -281.565     238.857    -232.862
  N     -281.388     240.129    -232.425
  C     -280.705     237.778    -232.337
  C     -280.983     236.553    -232.762
  O     -277.773     234.489    -231.835
  O     -279.988     233.878    -230.662
  H     -281.004     235.988    -236.383
  H     -279.628     234.300    -229.838
  H     -279.906     238.001    -231.640
  H     -280.402     235.693    -232.431
  H     -283.268     235.026    -234.699
  H     -280.209     234.683    -234.696
  H     -280.613     232.399    -235.419
  H     -282.725     232.027    -233.618
  H     -282.013     240.837    -232.797
  H     -281.077     232.364    -231.701
  H     -280.758     240.382    -231.680
  H     -280.607     231.162    -232.910
  P     -282.519     232.672    -237.521
  C     -284.881     233.634    -237.335
  O     -284.015     232.795    -238.079
  O     -281.732     231.536    -238.097
  O     -281.871     234.084    -237.893
  H     -281.548     234.067    -238.813
  H     -285.768     233.872    -237.943
  H     -284.391     234.576    -237.066
  H     -285.205     233.119    -236.429
  H     -277.928     230.906    -229.306
  H     -279.387     231.866    -229.266
  H     -277.834     232.627    -229.019

 3  4  5  6  7  8  9  10  11  12  13  23  27  28  29  30  32 0
 6-311+G(2d,p)
 ****
 34  35 0
 6-311+G(2d,p)
 ****
 1  2  14  15  16  17  18  19  20  21  22  24  25  26 0
 3-21G
 ****
 31  33  36  37  38  39  40  41  42  43  44  45  46 0
 3-21G
 ****


