%nproc=1
%NoSave
%Mem=1900MB
#P OB98/GEN NMR

erre ene a

0 1
  C      120.992    -169.287     -66.042
  O      120.956    -168.146     -66.877
  H      120.022    -169.791     -66.094
  H      121.187    -169.010     -65.005
  H      121.764    -169.984     -66.390
  P      122.171    -167.100     -66.777
  C      123.099    -165.547     -64.933
  O      122.077    -166.467     -65.302
  C      122.603    -164.578     -63.856
  O      122.411    -165.281     -62.611
  C      123.586    -163.461     -63.533
  O      123.742    -162.513     -64.574
  C      123.121    -163.002     -62.163
  O      122.077    -162.034     -62.211
  C      122.583    -164.321     -61.549
  N      123.458    -164.828     -60.496
  C      123.290    -164.249     -59.239
  O      122.480    -163.344     -59.011
  N      124.117    -164.708     -58.254
  C      125.108    -165.639     -58.413
  O      125.845    -165.982     -57.495
  C      125.249    -166.198     -59.766
  C      124.433    -165.772     -60.729
  O      122.239    -166.073     -67.871
  O      123.467    -168.033     -66.686
  H      122.359    -161.342     -62.834
  H      124.293    -167.520     -66.890
  H      124.001    -164.306     -57.337
  H      126.030    -166.936     -59.927
  H      124.519    -166.172     -61.738
  H      121.590    -164.157     -61.108
  H      123.945    -162.557     -61.591
  H      124.575    -163.912     -63.392
  H      121.636    -164.175     -64.171
  H      123.376    -164.977     -65.831
  H      123.978    -166.096     -64.578
  P      124.942    -161.468     -64.634
  C      125.799    -159.470     -63.204
  O      124.790    -160.455     -63.388
  O      125.281    -160.905     -65.969
  O      126.186    -162.383     -64.163
  H      126.980    -162.075     -64.646
  H      125.565    -158.876     -62.345
  H      125.847    -158.842     -64.069
  H      126.744    -159.950     -63.059

 6  7  8  9  10  11  12  13  14  15  16  26  31  32  33  34  35 0
 6-311+G(2d,p)
 ****
 36  37 0
 6-311+G(2d,p)
 ****
 1  2  3  4  5  17  18  19  20  21  22  23  24  25 0
 3-21G
 ****
 27  28  29  30  38  39  40  41  42  43  44  45 0
 3-21G
 ****


