%nproc=1
%NoSave
%Mem=1900MB
#P OB98/GEN NMR

erre ene a

0 1
  C      -35.510     -63.911      64.187
  O      -35.996     -65.139      63.666
  P      -37.525     -65.190      63.182
  C      -38.232     -65.979      65.541
  O      -38.427     -65.030      64.502
  C      -39.105     -65.650      66.747
  O      -38.804     -64.297      67.190
  C      -40.615     -65.719      66.473
  O      -41.267     -66.374      67.570
  C      -41.047     -64.262      66.486
  O      -42.421     -64.115      66.825
  C      -40.072     -63.694      67.517
  N      -42.113     -59.434      69.303
  C      -42.311     -60.741      69.701
  N      -43.226     -60.943      70.676
  N      -41.674     -61.761      69.189
  C      -40.766     -61.407      68.246
  C      -40.474     -60.149      67.774
  C      -41.232     -59.036      68.308
  O      -41.167     -57.867      67.934
  N      -39.482     -60.189      66.828
  C      -39.175     -61.468      66.724
  N      -39.963     -62.253      67.529
  O      -37.717     -66.726      62.773
  O      -37.866     -64.283      62.051
  H      -42.914     -64.787      66.317
  H      -38.026     -66.784      61.848
  H      -42.645     -58.687      69.719
  H      -38.422     -61.873      66.061
  H      -40.352     -64.016      68.528
  H      -40.883     -63.830      65.493
  H      -43.726     -60.199      71.137
  H      -40.879     -66.219      65.536
  H      -43.368     -61.891      70.998
  H      -38.830     -66.321      67.571
  H      -37.180     -65.969      65.845
  H      -38.479     -66.977      65.162
  P      -42.638     -67.135      67.222
  C      -43.985     -65.328      68.529
  O      -43.787     -66.023      67.314
  O      -42.890     -68.052      68.510
  O      -42.589     -67.926      65.957
  H      -43.446     -68.819      68.279
  H      -43.190     -65.530      69.256
  H      -44.943     -65.630      68.961
  H      -44.012     -64.255      68.325
  H      -34.484     -64.024      64.467
  H      -36.086     -63.635      65.045
  H      -35.594     -63.149      63.441

 3  4  5  6  7  8  9  10  11  12  23  26  30  31  33  0
 6-311+G(2d,p)
 ****
 35  36  37  38 0
 6-311+G(2d,p)
 ****
 1  2  13  14  15  16  17  18  19  20  21  22  24  25  27  28  29 0
 3-21G
 ****
 32  34  39  40  41  42  43  44  45  46  47  48  49 0
 3-21G
 ****


