%nproc=1
%NoSave
%Mem=1900MB
#P OB98/GEN NMR

erre ene a

0 1
  C     -199.707      26.602    -574.057
  O     -199.458      25.207    -573.955
  P     -199.586      24.466    -572.526
  C     -197.441      23.636    -571.368
  O     -198.249      24.777    -571.688
  C     -196.991      22.938    -572.653
  O     -196.302      23.854    -573.537
  C     -195.991      21.806    -572.422
  O     -196.621      20.656    -571.853
  C     -195.435      21.598    -573.818
  O     -196.330      20.806    -574.627
  C     -195.404      23.068    -574.350
  N     -194.053      23.626    -574.338
  C     -193.248      23.290    -575.440
  O     -193.653      22.494    -576.296
  N     -191.993      23.848    -575.521
  C     -191.539      24.581    -574.558
  N     -190.329      25.155    -574.720
  C     -192.316      24.817    -573.300
  C     -193.551      24.342    -573.276
  O     -199.972      23.020    -572.595
  O     -200.699      25.319    -571.751
  H     -201.375      24.709    -571.395
  H     -195.971      20.830    -575.539
  H     -191.872      25.384    -572.492
  H     -194.194      24.485    -572.421
  H     -195.799      23.106    -575.374
  H     -194.468      21.097    -573.817
  H     -195.193      22.156    -571.756
  H     -197.891      22.551    -573.164
  H     -189.841      25.000    -575.587
  H     -198.027      22.959    -570.748
  H     -190.031      25.990    -574.194
  H     -196.575      23.976    -570.788
  P     -195.637      19.560    -571.201
  C     -195.591      17.412    -572.683
  O     -195.036      18.698    -572.420
  O     -196.658      18.526    -570.495
  O     -194.648      20.078    -570.233
  H     -196.267      18.189    -569.650
  H     -195.331      17.116    -573.712
  H     -196.663      17.435    -572.595
  H     -195.164      16.692    -571.995
  H     -199.575      26.915    -575.072
  H     -199.023      27.133    -573.428
  H     -200.710      26.809    -573.748

 3  4  5  6  7  8  9  10  11  12  13  24  27  28  29  30  32 0
 6-311+G(2d,p)
 ****
 34  35 0
 6-311+G(2d,p)
 ****
 1  2  14  15  16  17  18  19  20  21  22  23  25  26 0
 3-21G
 ****
 31  33  36  37  38  39  40  41  42  43  44  45  46 0
 3-21G
 ****


