%nproc=1
%NoSave
%Mem=1900MB
#P OB98/GEN NMR

erre ene a

0 1
  C     -244.903    -621.333     180.200
  O     -244.938    -621.325     181.611
  P     -246.261    -621.038     182.456
  C     -247.229    -623.435     182.200
  O     -247.411    -622.044     181.949
  C     -248.329    -624.039     183.088
  O     -248.347    -623.350     184.355
  C     -249.703    -623.806     182.448
  O     -250.186    -624.688     181.447
  C     -250.653    -623.588     183.621
  O     -251.383    -624.768     183.970
  C     -249.716    -623.180     184.765
  N     -252.994    -619.702     186.452
  C     -253.137    -621.073     186.397
  N     -254.379    -621.548     186.643
  N     -252.162    -621.898     186.098
  C     -251.007    -621.257     185.785
  C     -250.736    -619.904     185.823
  C     -251.811    -619.018     186.188
  O     -251.753    -617.789     186.180
  N     -249.478    -619.620     185.366
  C     -248.991    -620.790     185.015
  N     -249.890    -621.812     185.209
  O     -246.622    -619.600     182.677
  O     -245.873    -621.663     183.888
  H     -252.076    -624.516     184.601
  H     -246.298    -621.109     184.576
  H     -253.806    -619.117     186.616
  H     -248.004    -620.954     184.590
  H     -249.870    -623.819     185.634
  H     -251.406    -622.822     183.366
  H     -255.182    -620.949     186.723
  H     -249.656    -622.837     181.941
  H     -254.561    -622.528     186.436
  H     -248.128    -625.090     183.316
  H     -246.246    -623.558     182.662
  H     -247.202    -623.973     181.244
  P     -251.361    -624.395     180.409
  C     -249.758    -623.537     178.613
  O     -250.881    -623.237     179.417
  O     -252.498    -623.672     181.290
  O     -251.922    -625.607     179.735
  H     -253.358    -623.775     180.852
  H     -249.349    -622.603     178.214
  H     -250.067    -624.171     177.771
  H     -248.991    -624.049     179.196
  H     -243.909    -621.549     179.869
  H     -245.202    -620.374     179.830
  H     -245.572    -622.082     179.831

 3  4  5  6  7  8  9  10  11  12  23  26  30  31 0
 6-311+G(2d,p)
 ****
 33  35  36  37  38 0
 6-311+G(2d,p)
 ****
 1  2  13  14  15  16  17  18  19  20  21  22  24  25 0
 3-21G
 ****
 27  28  29  32  34  39  40  41  42  43  44  45  46  47  48  49 0
 3-21G
 ****


