%nproc=1
%NoSave
%Mem=1900MB
#P OB98/GEN NMR

erre ene a

0 1
  C       82.420     862.511    -465.454
  O       83.329     863.578    -465.166
  P       84.513     863.995    -466.183
  C       83.215     866.198    -466.479
  O       83.996     865.189    -467.111
  C       83.595     867.602    -466.962
  O       84.934     867.934    -466.540
  C       83.574     867.773    -468.485
  O       82.252     867.954    -468.943
  C       84.477     868.998    -468.648
  O       83.748     870.205    -468.391
  C       85.545     868.775    -467.568
  N       90.282     869.631    -469.292
  C       89.318     870.458    -468.832
  N       88.074     870.153    -468.393
  C       87.877     868.835    -468.439
  C       88.760     867.856    -468.894
  C       90.006     868.300    -469.339
  N       90.986     867.453    -469.828
  N       88.183     866.610    -468.813
  C       86.971     866.818    -468.307
  N       86.744     868.147    -468.060
  O       85.102     862.836    -466.928
  O       85.615     864.705    -465.257
  H       83.256     870.088    -467.566
  H       86.504     864.581    -465.645
  H       89.584     871.521    -468.805
  H       86.252     866.032    -468.100
  H       85.828     869.699    -467.078
  H       84.892     869.080    -469.666
  H       84.031     866.913    -468.966
  H       82.923     868.321    -466.476
  H       83.386     866.132    -465.401
  H       91.848     867.852    -470.145
  H       90.783     866.471    -469.909
  H       82.171     866.008    -466.697
  P       81.811     867.331    -470.360
  C       79.833     865.891    -469.586
  O       81.164     865.895    -470.085
  O       82.864     867.363    -471.424
  O       80.546     868.218    -470.774
  H       80.486     868.259    -471.757
  H       79.840     866.100    -468.514
  H       79.404     864.896    -469.762
  H       79.232     866.646    -470.106
  H       81.723     862.409    -464.649
  H       82.966     861.598    -465.570
  H       81.891     862.727    -466.359

 3  4  5  6  7  8  9  10  11  12  22  25  29  30  31  32 0
 6-311+G(2d,p)
 ****
 33  36  37 0
 6-311+G(2d,p)
 ****
 1  2  13  14  15  16  17  18  19  20  21  23  24  26 0
 3-21G
 ****
 27  28  34  35  38  39  40  41  42  43  44  45  46  47  48 0
 3-21G
 ****


