%nproc=1
%NoSave
%Mem=1900MB
#P OB98/GEN NMR

erre ene a

0 1
  C      -57.046    -483.520    -305.668
  O      -55.795    -484.030    -305.187
  P      -54.504    -483.108    -304.936
  C      -53.237    -484.398    -303.083
  O      -54.059    -483.281    -303.401
  C      -52.308    -484.072    -301.913
  O      -51.378    -483.026    -302.285
  C      -52.993    -483.533    -300.668
  O      -53.694    -484.538    -299.957
  C      -51.808    -482.938    -299.907
  O      -51.127    -483.938    -299.139
  C      -50.902    -482.444    -301.050
  N      -50.845    -480.996    -301.145
  C      -50.520    -480.299    -299.975
  O      -50.372    -480.906    -298.914
  N      -50.381    -478.935    -300.038
  C      -50.651    -478.312    -301.141
  N      -50.484    -476.963    -301.152
  C      -51.135    -478.994    -302.359
  C      -51.203    -480.322    -302.291
  O      -54.685    -481.683    -305.351
  O      -53.321    -483.803    -305.761
  H      -52.656    -483.134    -306.005
  H      -51.787    -484.335    -298.540
  H      -51.389    -478.429    -303.246
  H      -51.532    -480.902    -303.147
  H      -49.885    -482.836    -300.921
  H      -52.118    -482.153    -299.211
  H      -53.682    -482.727    -300.951
  H      -51.736    -484.981    -301.670
  H      -50.141    -476.526    -300.303
  H      -52.630    -484.645    -303.961
  H      -50.645    -476.386    -301.963
  H      -53.876    -485.258    -302.848
  P      -55.291    -484.556    -300.109
  C      -54.962    -486.666    -301.583
  O      -55.648    -485.446    -301.393
  O      -55.644    -483.060    -300.568
  O      -56.029    -484.927    -298.862
  H      -56.465    -482.770    -300.134
  H      -55.603    -487.346    -302.151
  H      -54.699    -487.136    -300.633
  H      -54.051    -486.478    -302.159
  H      -57.749    -484.322    -305.754
  H      -56.902    -483.068    -306.627
  H      -57.421    -482.789    -304.982

 3  4  5  6  7  8  9  10  11  12  13  24  27  28  29  30  32 0
 6-311+G(2d,p)
 ****
 34  35 0
 6-311+G(2d,p)
 ****
 1  2  14  15  16  17  18  19  20  21  22  23  25  26 0
 3-21G
 ****
 31  33  36  37  38  39  40  41  42  43  44  45  46 0
 3-21G
 ****


