%nproc=1
%NoSave
%Mem=1900MB
#P OB98/GEN NMR

erre ene a

0 1
  C       78.009     138.126    -285.510
  O       77.402     138.191    -286.786
  H       78.507     137.162    -285.380
  H       78.755     138.921    -285.437
  H       77.260     138.270    -284.726
  P       76.246     137.118    -287.085
  C       74.500     138.945    -286.498
  O       74.953     137.618    -286.278
  C       73.002     139.039    -286.231
  O       72.572     140.415    -286.288
  C       72.127     138.294    -287.234
  O       72.075     136.903    -286.956
  C       70.782     138.962    -286.987
  O       70.175     138.411    -285.804
  C       71.192     140.421    -286.738
  N       67.960     142.755    -289.944
  C       67.753     142.052    -288.810
  N       68.667     141.479    -287.999
  C       69.910     141.705    -288.452
  C       70.279     142.420    -289.579
  C       69.238     142.959    -290.351
  N       69.459     143.619    -291.550
  N       71.653     142.423    -289.729
  C       72.100     141.705    -288.720
  N       71.087     141.256    -287.918
  O       76.737     135.831    -286.264
  O       76.030     136.805    -288.527
  H       70.758     138.641    -285.057
  H       77.201     135.223    -286.869
  H       66.717     141.930    -288.516
  H       73.143     141.482    -288.535
  H       70.597     140.889    -285.946
  H       70.076     138.821    -287.810
  H       72.441     138.490    -288.265
  H       72.818     138.678    -285.211
  H       74.701     139.231    -287.536
  H       68.689     143.535    -292.207
  H       70.392     143.504    -291.924
  H       75.048     139.617    -285.831
  P       71.099     136.000    -287.854
  C       72.850     135.465    -289.680
  O       71.629     136.119    -289.366
  O       69.738     136.842    -287.859
  O       70.874     134.614    -287.354
  H       69.004     136.287    -287.531
  H       73.085     135.624    -290.712
  H       72.751     134.416    -289.494
  H       73.635     135.863    -289.071

 6  7  8  9  10  11  12  13  14  15  25  28  32  33  34  35 0
 6-311+G(2d,p)
 ****
 36  39  40 0
 6-311+G(2d,p)
 ****
 1  2  3  4  5  16  17  18  19  20  21  22  23  24 0
 3-21G
 ****
 26  27  29  30  31  37  38  41  42  43  44  45  46  47  48 0
 3-21G
 ****


