%nproc=1
%NoSave
%Mem=1900MB
#P OB98/GEN NMR

erre ene a

0 1
  C     -264.072     326.195     290.480
  O     -265.259     325.564     290.964
  P     -266.659     326.331     290.865
  C     -267.825     325.111     288.907
  O     -267.780     325.331     290.311
  C     -269.277     324.943     288.445
  O     -269.382     324.959     287.004
  C     -269.876     323.602     288.863
  O     -270.124     323.417     290.243
  C     -271.058     323.472     287.920
  O     -272.199     324.191     288.404
  C     -270.510     324.134     286.632
  N     -270.130     323.151     285.613
  C     -271.171     322.661     284.826
  O     -272.345     322.978     284.984
  N     -270.810     321.755     283.867
  C     -269.550     321.273     283.642
  O     -269.290     320.444     282.785
  C     -268.501     321.809     284.522
  C     -268.836     322.711     285.453
  O     -266.621     327.668     290.205
  O     -267.085     326.493     292.408
  H     -272.331     323.929     289.331
  H     -267.463     327.389     292.523
  H     -271.550     321.388     283.278
  H     -267.496     321.449     284.379
  H     -268.074     323.120     286.113
  H     -271.258     324.798     286.197
  H     -271.366     322.429     287.800
  H     -269.157     322.818     288.581
  H     -269.864     325.780     288.832
  H     -267.237     324.226     288.646
  H     -267.346     325.959     288.399
  P     -269.678     322.098     291.046
  C     -267.324     322.403     292.086
  O     -268.716     322.543     292.249
  O     -269.267     320.915     290.240
  O     -271.044     321.739     291.825
  H     -271.092     320.767     291.915
  H     -266.832     322.734     292.999
  H     -266.972     323.026     291.255
  H     -267.061     321.354     291.904
  H     -263.237     325.543     290.625
  H     -263.909     327.107     291.015
  H     -264.181     326.408     289.437

 3  4  5  6  7  8  9  10  11  12  13  23  28  29  30  31  32 0
 6-311+G(2d,p)
 ****
 33  34 0
 6-311+G(2d,p)
 ****
 1  2  14  15  16  17  18  19  20  21  22  24  25  26  27 0
 3-21G
 ****
 35  36  37  38  39  40  41  42  43  44  45 0
 3-21G
 ****


