%nproc=1
%NoSave
%Mem=1900MB
#P OB98/GEN NMR

erre ene a

0 1
  C     -650.250      43.130    -887.280
  O     -651.247      42.109    -887.262
  P     -652.592      42.272    -888.109
  C     -653.960      41.784    -885.976
  O     -653.714      42.693    -887.045
  C     -654.955      42.385    -884.992
  O     -654.360      43.581    -884.422
  C     -656.297      42.834    -885.569
  O     -657.265      41.806    -885.699
  C     -656.751      43.832    -884.506
  O     -657.291      43.109    -883.382
  C     -655.446      44.513    -884.116
  N     -656.822      49.432    -884.536
  C     -657.207      48.453    -883.681
  N     -656.808      47.159    -883.645
  C     -655.885      46.933    -884.593
  C     -655.390      47.823    -885.542
  C     -655.906      49.129    -885.493
  N     -655.500      50.130    -886.362
  N     -654.471      47.210    -886.374
  C     -654.407      45.974    -885.919
  N     -655.225      45.764    -884.848
  O     -652.942      41.083    -888.964
  O     -652.369      43.611    -888.971
  H     -657.171      43.674    -882.594
  H     -653.021      43.637    -889.703
  H     -657.926      48.744    -882.917
  H     -653.769      45.200    -886.340
  H     -655.386      44.742    -883.045
  H     -657.540      44.496    -884.865
  H     -656.156      43.374    -886.526
  H     -655.105      41.666    -884.172
  H     -653.008      41.594    -885.465
  H     -655.821      51.077    -886.162
  H     -654.701      49.942    -886.948
  H     -654.326      40.841    -886.380
  P     -658.506      42.073    -886.693
  C     -660.076      42.113    -884.580
  O     -659.628      42.741    -885.771
  O     -658.938      40.891    -887.472
  O     -657.981      43.297    -887.576
  H     -657.855      44.139    -887.112
  H     -660.713      42.799    -884.039
  H     -659.223      41.844    -883.944
  H     -660.640      41.209    -884.828
  H     -649.431      42.840    -886.656
  H     -650.669      44.044    -886.915
  H     -649.902      43.271    -888.282

 3  4  5  6  7  8  9  10  11  12  22  25  29  30  31  32 0
 6-311+G(2d,p)
 ****
 33  36  37 0
 6-311+G(2d,p)
 ****
 1  2  13  14  15  16  17  18  19  20  21  23  24  26 0
 3-21G
 ****
 27  28  34  35  38  39  40  41  42  43  44  45  46  47  48 0
 3-21G
 ****


