%nproc=1
%NoSave
%Mem=1900MB
#P OB98/GEN NMR

erre ene a

0 1
  C      430.235    -108.544     156.097
  O      430.462    -109.735     156.852
  P      429.226    -110.742     157.036
  C      429.345    -111.550     159.512
  O      429.617    -111.835     158.142
  C      429.618    -112.787     160.372
  O      429.011    -113.962     159.799
  C      431.095    -113.119     160.492
  O      431.728    -112.263     161.426
  C      431.057    -114.579     160.925
  O      431.021    -114.713     162.354
  C      429.746    -115.098     160.290
  N      429.976    -116.075     159.236
  C      429.905    -117.421     159.624
  O      429.683    -117.716     160.797
  N      430.113    -118.383     158.671
  C      430.392    -118.041     157.453
  N      430.592    -119.044     156.556
  C      430.503    -116.633     157.012
  C      430.287    -115.713     157.947
  O      429.228    -111.578     155.673
  O      427.916    -110.056     157.261
  H      431.749    -114.147     162.694
  H      428.317    -111.824     155.423
  H      430.745    -116.398     155.985
  H      430.348    -114.656     157.713
  H      429.114    -115.574     161.056
  H      431.946    -115.120     160.583
  H      431.581    -113.037     159.509
  H      429.188    -112.621     161.369
  H      430.510    -119.995     156.892
  H      428.310    -111.232     159.632
  H      430.822    -118.891     155.583
  H      429.970    -110.709     159.825
  P      433.027    -111.470     160.950
  C      434.329    -111.401     163.166
  O      433.527    -110.672     162.251
  O      432.398    -110.288     160.065
  O      434.066    -112.234     160.202
  H      433.109    -109.777     159.632
  H      434.768    -110.696     163.883
  H      435.136    -111.917     162.643
  H      433.709    -112.116     163.712
  H      431.137    -107.971     156.055
  H      429.466    -107.966     156.566
  H      429.931    -108.803     155.104

 3  4  5  6  7  8  9  10  11  12  13  21  23  27  28  29  30  32 0
 6-311+G(2d,p)
 ****
 34  35 0
 6-311+G(2d,p)
 ****
 1  2  14  15  16  17  18  19  20  22  24  25  26 0
 3-21G
 ****
 31  33  36  37  38  39  40  41  42  43  44  45  46 0
 3-21G
 ****


