%nproc=1
%NoSave
%Mem=1900MB
#P OB98/GEN NMR

erre ene a

0 1
  C     -891.490    -895.060     214.829
  O     -892.500    -894.090     215.176
  P     -892.990    -893.170     213.966
  C     -895.410    -894.100     213.783
  O     -894.160    -893.940     213.132
  C     -896.440    -894.790     212.865
  O     -896.820    -893.930     211.814
  C     -895.900    -896.100     212.258
  O     -897.010    -897.020     212.116
  C     -895.470    -895.670     210.845
  O     -895.390    -896.760     209.976
  C     -896.580    -894.630     210.548
  N     -896.200    -893.720     209.496
  C     -896.660    -893.990     208.177
  O     -897.280    -895.000     207.969
  N     -896.370    -893.110     207.182
  C     -895.630    -892.070     207.425
  N     -895.380    -891.230     206.369
  C     -895.080    -891.770     208.744
  C     -895.420    -892.620     209.743
  O     -891.770    -893.120     212.949
  O     -893.380    -891.770     214.448
  H     -896.200    -897.340     210.079
  H     -891.570    -892.230     212.717
  H     -894.460    -890.890     208.894
  H     -895.070    -892.490     210.748
  H     -897.530    -895.130     210.208
  H     -894.470    -895.160     210.900
  H     -895.090    -896.590     212.809
  H     -897.320    -895.030     213.430
  H     -895.790    -891.470     205.478
  H     -895.820    -893.120     214.083
  H     -894.800    -890.390     206.440
  H     -895.250    -894.700     214.704
  P     -896.820    -898.480     212.762
  C     -899.280    -899.060     213.251
  O     -898.080    -898.610     213.764
  O     -895.600    -898.260     213.710
  O     -896.630    -899.620     211.816
  H     -895.370    -899.110     214.124
  H     -900.000    -899.220     214.086
  H     -899.150    -900.000     212.733
  H     -899.760    -898.330     212.564
  H     -891.226    -895.626     215.698
  H     -890.624    -894.555     214.456
  H     -891.871    -895.718     214.076

 3  4  5  6  7  8  9  10  11  12  13  21  23  27  28  29  30  32 0
 6-311+G(2d,p)
 ****
 34  35 0
 6-311+G(2d,p)
 ****
 1  2  14  15  16  17  18  19  20  22  24  25  26 0
 3-21G
 ****
 31  33  36  37  38  39  40  41  42  43  44  45  46 0
 3-21G
 ****


