%nproc=1
%NoSave
%Mem=1900MB
#P OB98/GEN NMR

erre ene a

0 1
  C       56.874      21.813     -38.920
  O       56.051      20.814     -38.305
  P       55.745      20.770     -36.729
  C       57.543      18.958     -36.359
  O       57.038      20.222     -35.951
  C       57.883      18.064     -35.159
  O       58.957      18.668     -34.372
  C       56.703      17.809     -34.202
  O       56.812      16.447     -33.772
  C       57.001      18.778     -33.067
  O       56.321      18.473     -31.863
  C       58.526      18.631     -32.995
  N       59.217      19.649     -32.209
  C       60.013      19.218     -31.140
  O       60.085      18.030     -30.830
  N       60.706      20.161     -30.417
  C       60.612      21.418     -30.724
  N       61.332      22.295     -29.975
  C       59.773      21.915     -31.828
  C       59.113      20.988     -32.521
  O       54.491      20.034     -36.383
  O       55.642      22.301     -36.272
  H       54.961      22.384     -35.577
  H       56.602      17.585     -31.575
  H       59.727      22.971     -32.056
  H       58.495      21.271     -33.368
  H       58.777      17.636     -32.606
  H       56.702      19.784     -33.376
  H       55.722      17.955     -34.666
  H       58.273      17.114     -35.544
  H       61.905      21.913     -29.231
  H       58.453      19.120     -36.945
  H       61.339      23.292     -30.131
  H       56.804      18.468     -37.002
  P       55.852      15.334     -34.415
  C       54.250      15.458     -32.362
  O       54.396      15.516     -33.767
  O       56.367      13.996     -33.689
  O       55.923      15.174     -35.900
  H       56.165      13.227     -34.255
  H       53.592      16.272     -32.044
  H       55.206      15.556     -31.840
  H       53.791      14.504     -32.090
  H       56.928      21.632     -39.973
  H       57.858      21.773     -38.501
  H       56.451      22.780     -38.745

 3  4  5  6  7  8  9  10  11  12  13  24  27  28  29  30  32 0
 6-311+G(2d,p)
 ****
 34  35 0
 6-311+G(2d,p)
 ****
 1  2  14  15  16  17  18  19  20  21  22  23  25  26 0
 3-21G
 ****
 31  33  36  37  38  39  40  41  42  43  44  45  46 0
 3-21G
 ****


