%nproc=1
%NoSave
%Mem=1900MB
#P OB98/GEN NMR

erre ene a

0 1
  C     -294.340     -40.319     -85.568
  O     -295.138     -39.489     -86.388
  H     -293.954     -39.722     -84.738
  H     -293.494     -40.720     -86.133
  H     -294.937     -41.139     -85.160
  P     -295.761     -40.110     -87.726
  C     -298.032     -40.445     -86.533
  O     -296.972     -41.052     -87.266
  C     -299.093     -41.480     -86.165
  O     -300.012     -40.934     -85.197
  C     -299.949     -41.937     -87.340
  O     -299.228     -42.826     -88.168
  C     -301.132     -42.545     -86.602
  O     -300.812     -43.854     -86.108
  C     -301.302     -41.545     -85.431
  N     -302.321     -40.529     -85.676
  C     -303.624     -40.856     -85.285
  O     -303.864     -41.954     -84.782
  N     -304.621     -39.934     -85.497
  C     -304.339     -38.778     -86.005
  N     -305.369     -37.910     -86.183
  C     -302.973     -38.381     -86.398
  C     -302.024     -39.298     -86.219
  O     -294.793     -40.763     -88.665
  O     -296.507     -38.872     -88.415
  H     -300.707     -44.424     -86.895
  H     -295.923     -38.439     -89.064
  H     -302.781     -37.400     -86.810
  H     -300.993     -39.086     -86.481
  H     -301.570     -42.079     -84.509
  H     -302.009     -42.648     -87.239
  H     -300.307     -41.071     -87.909
  H     -298.585     -42.331     -85.694
  H     -306.287     -38.220     -85.879
  H     -298.467     -39.673     -87.176
  H     -305.247     -36.936     -86.415
  H     -297.647     -39.963     -85.627
  P     -299.676     -43.116     -89.680
  C     -297.949     -41.552     -90.764
  O     -299.325     -41.783     -90.503
  O     -301.075     -43.605     -89.844
  O     -298.575     -44.148     -90.207
  H     -298.756     -45.056     -89.856
  H     -297.838     -40.641     -91.315
  H     -297.553     -42.365     -91.336
  H     -297.418     -41.476     -89.838

 6  7  8  9  10  11  12  13  14  15  16  26  30  31  32  33  35 0
 6-311+G(2d,p)
 ****
 37  38 0
 6-311+G(2d,p)
 ****
 1  2  3  4  5  17  18  19  20  21  22  23  24  25 0
 3-21G
 ****
 27  28  29  34  36  39  40  41  42  43  44  45  46 0
 3-21G
 ****


