%nproc=1
%NoSave
%Mem=1900MB
#P OB98/GEN NMR

erre ene a

0 1
  C     -338.844    -478.497     -71.735
  O     -339.893    -477.565     -71.554
  H     -339.267    -479.434     -72.113
  H     -338.344    -478.699     -70.783
  H     -338.123    -478.112     -72.464
  P     -339.503    -476.153     -70.904
  C     -340.426    -474.357     -72.544
  O     -340.634    -475.105     -71.354
  C     -341.667    -473.515     -72.840
  O     -342.760    -474.380     -73.234
  C     -342.184    -472.729     -71.643
  O     -341.441    -471.543     -71.403
  C     -343.608    -472.438     -72.086
  O     -343.676    -471.273     -72.921
  C     -343.984    -473.707     -72.868
  N     -344.877    -474.573     -72.102
  C     -345.978    -475.073     -72.799
  O     -346.203    -474.822     -73.983
  N     -346.838    -475.850     -72.069
  C     -346.741    -476.127     -70.737
  O     -347.582    -476.782     -70.134
  C     -345.568    -475.556     -70.051
  C     -344.708    -474.813     -70.748
  O     -338.217    -475.705     -71.746
  O     -339.231    -476.187     -69.438
  H     -337.417    -475.808     -71.200
  H     -343.097    -471.456     -73.687
  H     -347.642    -476.223     -72.551
  H     -345.460    -475.752     -68.992
  H     -343.841    -474.372     -70.265
  H     -344.491    -473.445     -73.807
  H     -344.253    -472.259     -71.226
  H     -342.211    -473.369     -70.755
  H     -341.440    -472.845     -73.678
  H     -340.252    -475.038     -73.385
  H     -339.546    -473.722     -72.417
  P     -341.034    -471.214     -69.885
  C     -339.335    -469.276     -70.443
  O     -340.587    -469.677     -69.879
  O     -339.671    -472.041     -69.757
  O     -342.100    -471.588     -68.905
  H     -339.229    -472.149     -70.616
  H     -339.221    -468.217     -70.342
  H     -339.310    -469.540     -71.480
  H     -338.538    -469.771     -69.929

 6  7  8  9  10  11  12  13  14  15  16  27  31  32  33  34  35 0
 6-311+G(2d,p)
 ****
 36  37 0
 6-311+G(2d,p)
 ****
 1  2  3  4  5  17  18  19  20  21  22  23  24  25 0
 3-21G
 ****
 26  28  29  30  38  39  40  41  42  43  44  45 0
 3-21G
 ****


