%nproc=1
%NoSave
%Mem=1900MB
#P OB98/GEN NMR

erre ene a

0 1
  C       32.561    -265.817      79.038
  O       31.529    -266.533      79.690
  H       32.476    -265.979      77.961
  H       33.538    -266.178      79.373
  H       32.467    -264.748      79.245
  P       31.523    -266.471      81.293
  C       30.012    -264.366      81.322
  O       31.261    -264.935      81.684
  C       29.361    -263.694      82.528
  O       30.226    -262.677      83.078
  C       28.027    -263.022      82.230
  O       26.965    -263.961      82.265
  C       27.949    -262.003      83.359
  O       27.508    -262.624      84.586
  C       29.407    -261.544      83.477
  N       29.049    -256.516      83.159
  C       28.513    -257.392      84.082
  N       27.742    -256.852      85.053
  N       28.704    -258.685      84.053
  C       29.445    -259.091      82.996
  C       30.030    -258.324      82.014
  C       29.854    -256.890      82.090
  O       30.370    -256.056      81.352
  N       30.720    -259.104      81.121
  C       30.527    -260.339      81.544
  N       29.754    -260.383      82.677
  O       33.063    -266.690      81.681
  O       30.649    -267.471      81.971
  H       28.065    -263.400      84.766
  H       33.106    -267.235      82.490
  H       28.896    -255.528      83.247
  H       30.929    -261.228      81.076
  H       29.678    -261.300      84.512
  H       27.231    -261.212      83.139
  H       27.330    -255.936      84.961
  H       28.056    -262.495      81.267
  H       27.292    -257.504      85.685
  H       29.239    -264.463      83.303
  H       29.355    -265.158      80.948
  H       30.169    -263.626      80.529
  P       25.701    -263.712      81.310
  C       26.851    -265.119      79.453
  O       26.185    -263.911      79.790
  O       25.470    -262.132      81.428
  O       24.472    -264.464      81.696
  H       24.691    -261.953      81.986
  H       27.110    -265.106      78.415
  H       26.205    -265.949      79.649
  H       27.740    -265.212      80.041

 6  7  8  9  10  11  12  13  14  15  26  29  33  34 0
 6-311+G(2d,p)
 ****
 36  38  39  40  41 0
 6-311+G(2d,p)
 ****
 1  2  3  4  5  16  17  18  19  20  21  22  23  24  25 0
 3-21G
 ****
 27  28  30  31  32  35  37  42  43  44  45  46  47 0
 3-21G
 ****
 48  49 0
 3-21G
 ****


