%nproc=1
%NoSave
%Mem=1900MB
#P OB98/GEN NMR

erre ene a

0 1
  C      195.372     676.404    -956.581
  O      196.199     676.673    -955.464
  H      195.026     677.353    -956.994
  H      194.496     675.831    -956.262
  H      195.930     675.865    -957.339
  P      196.817     675.456    -954.623
  C      199.209     676.374    -954.404
  O      197.987     676.102    -953.719
  C      200.412     676.285    -953.457
  O      200.522     677.543    -952.722
  C      200.306     675.156    -952.437
  O      201.541     674.438    -952.377
  C      200.075     675.879    -951.104
  O      200.480     675.117    -949.976
  C      200.855     677.189    -951.361
  N      200.488     678.229    -950.407
  C      201.505     678.605    -949.503
  O      202.608     678.071    -949.558
  N      201.198     679.546    -948.564
  C      200.000     680.024    -948.464
  N      199.767     680.925    -947.479
  C      198.911     679.639    -949.380
  C      199.210     678.736    -950.319
  O      197.224     674.277    -955.440
  O      195.692     675.101    -953.533
  H      200.025     674.241    -950.015
  H      195.829     674.173    -953.221
  H      197.914     680.044    -949.257
  H      198.479     678.381    -951.031
  H      201.930     677.014    -951.302
  H      199.001     676.110    -951.010
  H      199.491     674.456    -952.647
  H      201.326     676.205    -954.060
  H      200.553     681.168    -946.861
  H      199.144     677.374    -954.862
  H      198.862     681.341    -947.286
  H      199.337     675.632    -955.201
  P      201.673     673.176    -953.357
  C      204.188     673.658    -953.841
  O      203.214     672.723    -953.393
  O      201.450     673.832    -954.821
  O      200.685     672.094    -953.106
  H      200.593     673.541    -955.191
  H      205.158     673.207    -953.806
  H      204.172     674.520    -953.208
  H      203.966     673.950    -954.846

 6  7  8  9  10  11  12  13  14  15  16  26  30  31  32  33  35 0
 6-311+G(2d,p)
 ****
 37  38 0
 6-311+G(2d,p)
 ****
 1  2  3  4  5  17  18  19  20  21  22  23  24  25 0
 3-21G
 ****
 27  28  29  34  36  39  40  41  42  43  44  45  46 0
 3-21G
 ****


