%nproc=1
%NoSave
%Mem=1900MB
#P OB98/GEN NMR

erre ene a

0 1
  C     -524.413    -314.611    -103.937
  O     -525.074    -313.357    -103.726
  P     -526.667    -313.318    -103.666
  C     -526.950    -311.695    -101.657
  O     -527.144    -313.014    -102.155
  C     -526.410    -311.729    -100.236
  O     -525.094    -312.333    -100.181
  C     -526.218    -310.349     -99.630
  O     -527.389    -309.612     -99.331
  C     -525.253    -310.612     -98.484
  O     -525.947    -311.081     -97.317
  C     -524.364    -311.740     -99.084
  N     -523.056    -311.261     -99.507
  C     -522.065    -311.226     -98.520
  O     -522.287    -311.532     -97.353
  N     -520.843    -310.793     -98.933
  C     -520.510    -310.357    -100.187
  O     -519.399    -309.953    -100.486
  C     -521.603    -310.391    -101.172
  C     -522.810    -310.836    -100.800
  O     -527.379    -314.439    -104.334
  O     -527.012    -311.925    -104.399
  H     -525.282    -311.258     -96.630
  H     -527.790    -312.074    -104.969
  H     -520.106    -310.772     -98.235
  H     -521.379    -310.047    -102.183
  H     -523.629    -310.863    -101.513
  H     -524.212    -312.528     -98.338
  H     -524.712    -309.707     -98.190
  H     -525.671    -309.730    -100.358
  H     -527.078    -312.344     -99.618
  H     -527.905    -311.153    -101.690
  H     -526.269    -311.162    -102.331
  P     -528.428    -309.119    -100.446
  C     -530.646    -309.837     -99.317
  O     -529.742    -310.047    -100.367
  O     -527.884    -308.816    -101.815
  O     -528.967    -307.756     -99.812
  H     -529.170    -307.127    -100.532
  H     -531.461    -310.566     -99.407
  H     -531.080    -308.828     -99.378
  H     -530.168    -309.979     -98.348
  H     -523.354    -314.458    -103.950
  H     -524.725    -315.026    -104.873
  H     -524.666    -315.285    -103.146

 3  4  5  6  7  8  9  10  11  12  13  23  28  29  30  31  32 0
 6-311+G(2d,p)
 ****
 33  34 0
 6-311+G(2d,p)
 ****
 1  2  14  15  16  17  18  19  20  21  22  24  25  26  27 0
 3-21G
 ****
 35  36  37  38  39  40  41  42  43  44  45 0
 3-21G
 ****


