%nproc=1
%NoSave
%Mem=1900MB
#P OB98/GEN NMR

erre ene a

0 1
  C       89.482    -363.536     -50.692
  O       90.343    -363.910     -49.639
  H       90.062    -362.971     -51.432
  H       88.678    -362.904     -50.329
  H       89.069    -364.429     -51.181
  P       89.717    -364.588     -48.324
  C       91.074    -366.662     -48.973
  O       89.803    -366.170     -48.598
  C       91.121    -368.177     -49.026
  O       90.862    -368.721     -47.702
  C       90.081    -368.791     -49.989
  O       90.709    -369.799     -50.787
  C       89.054    -369.435     -49.055
  O       88.340    -370.488     -49.685
  C       89.960    -369.828     -47.869
  N       89.202    -370.079     -46.644
  C       88.835    -371.423     -46.404
  O       89.132    -372.313     -47.222
  N       88.121    -371.716     -45.277
  C       87.743    -370.762     -44.488
  N       87.022    -371.124     -43.386
  C       88.058    -369.342     -44.722
  C       88.788    -369.083     -45.807
  O       88.358    -364.082     -47.947
  O       90.821    -364.361     -47.182
  H       88.952    -371.246     -49.801
  H       90.406    -364.449     -46.297
  H       87.704    -368.589     -44.036
  H       89.064    -368.063     -46.063
  H       90.536    -370.730     -48.105
  H       88.334    -368.662     -48.732
  H       89.616    -368.055     -50.645
  H       92.138    -368.501     -49.289
  H       86.833    -372.115     -43.255
  H       91.823    -366.284     -48.255
  H       86.692    -370.469     -42.703
  H       91.319    -366.264     -49.981
  P       90.697    -369.544     -52.371
  C       93.156    -368.759     -52.621
  O       91.781    -368.402     -52.711
  O       89.288    -368.805     -52.605
  O       90.807    -370.795     -53.187
  H       88.632    -369.446     -52.949
  H       93.761    -367.913     -52.871
  H       93.362    -369.559     -53.301
  H       93.378    -369.074     -51.623

 6  7  8  9  10  11  12  13  14  15  16  26  30  31  32  33  35 0
 6-311+G(2d,p)
 ****
 37  38 0
 6-311+G(2d,p)
 ****
 1  2  3  4  5  17  18  19  20  21  22  23  24  25 0
 3-21G
 ****
 27  28  29  34  36  39  40  41  42  43  44  45  46 0
 3-21G
 ****


