%nproc=1
%NoSave
%Mem=1900MB
#P OB98/GEN NMR

erre ene a

0 1
  C      -58.264      -1.218    -147.087
  O      -57.949      -2.260    -147.985
  H      -57.931      -0.270    -147.516
  H      -57.741      -1.372    -146.138
  H      -59.342      -1.170    -146.914
  P      -58.486      -3.730    -147.631
  C      -58.445      -5.163    -145.466
  O      -57.823      -4.136    -146.226
  C      -57.421      -5.843    -144.555
  O      -56.590      -6.723    -145.358
  C      -56.499      -4.862    -143.825
  O      -56.262      -5.355    -142.503
  C      -55.209      -4.918    -144.625
  O      -54.067      -4.552    -143.850
  C      -55.214      -6.370    -145.119
  N      -54.397      -6.530    -146.318
  C      -53.599      -7.676    -146.386
  O      -53.600      -8.489    -145.458
  N      -52.775      -7.849    -147.471
  C      -52.690      -6.916    -148.365
  N      -51.833      -7.131    -149.403
  C      -53.464      -5.658    -148.302
  C      -54.293      -5.538    -147.266
  O      -57.724      -4.667    -148.680
  O      -59.969      -3.899    -147.688
  H      -53.266      -4.681    -144.403
  H      -58.269      -5.438    -148.926
  H      -53.338      -4.899    -149.060
  H      -54.895      -4.647    -147.129
  H      -54.829      -7.044    -144.339
  H      -55.275      -4.228    -145.473
  H      -56.907      -3.849    -143.769
  H      -57.959      -6.478    -143.842
  H      -51.309      -7.998    -149.403
  H      -58.860      -5.910    -146.151
  H      -51.656      -6.457    -150.132
  H      -59.259      -4.736    -144.873
  P      -57.355      -4.980    -141.389
  C      -57.847      -2.931    -139.871
  O      -57.192      -3.425    -141.032
  O      -56.817      -5.729    -140.080
  O      -58.742      -5.408    -141.740
  H      -57.392      -6.491    -139.872
  H      -57.646      -1.885    -139.766
  H      -57.486      -3.452    -139.009
  H      -58.902      -3.084    -139.964

 6  7  8  9  10  11  12  13  14  15  16  26  30  31  32  33  35 0
 6-311+G(2d,p)
 ****
 37  38 0
 6-311+G(2d,p)
 ****
 1  2  3  4  5  17  18  19  20  21  22  23  24  25 0
 3-21G
 ****
 27  28  29  34  36  39  40  41  42  43  44  45  46 0
 3-21G
 ****


