%nproc=1
%NoSave
%Mem=1900MB
#P OB98/GEN NMR

erre ene a

0 1
  C      529.436       9.180     163.054
  O      530.778       9.273     162.637
  P      531.885       9.919     163.601
  C      532.173      12.194     164.777
  O      531.503      11.471     163.742
  C      532.687      13.532     164.227
  O      531.588      14.404     163.872
  C      533.493      14.339     165.246
  O      534.732      13.808     165.660
  C      533.502      15.707     164.581
  O      534.519      15.772     163.569
  C      532.096      15.755     163.937
  N      531.193      16.640     164.687
  C      531.191      17.975     164.300
  O      531.870      18.422     163.385
  N      530.371      18.800     165.025
  C      529.613      18.434     166.101
  O      528.929      19.243     166.733
  C      529.683      17.019     166.484
  C      530.460      16.186     165.773
  O      533.296       9.670     163.206
  O      531.501       9.345     165.047
  H      534.530      14.919     163.102
  H      530.603       9.576     165.355
  H      530.352      19.777     164.760
  H      529.085      16.694     167.328
  H      530.520      15.138     166.024
  H      532.157      16.133     162.916
  H      533.725      16.509     165.303
  H      532.891      14.430     166.157
  H      533.268      13.331     163.318
  H      533.032      11.596     165.129
  H      531.497      12.339     165.616
  P      535.377      14.125     167.096
  C      536.696      16.080     168.181
  O      536.140      15.525     167.002
  O      536.112      12.996     167.765
  O      534.093      14.499     167.963
  H      534.248      14.240     168.894
  H      537.130      17.062     167.946
  H      537.486      15.439     168.569
  H      535.914      16.218     168.940
  H      528.853       8.724     162.281
  H      529.057      10.160     163.256
  H      529.379       8.585     163.942

 3  4  5  6  7  8  9  10  11  12  13  23  28  29  30  31  32 0
 6-311+G(2d,p)
 ****
 33  34 0
 6-311+G(2d,p)
 ****
 1  2  14  15  16  17  18  19  20  21  22  24  25  26  27 0
 3-21G
 ****
 35  36  37  38  39  40  41  42  43  44  45 0
 3-21G
 ****


