%nproc=1
%NoSave
%Mem=1900MB
#P OB98/GEN NMR

erre ene a

0 1
  C      -71.153     468.540     217.944
  O      -71.414     467.793     216.767
  P      -72.926     467.345     216.472
  C      -72.783     465.230     218.011
  O      -73.002     465.763     216.713
  C      -73.895     464.241     218.359
  O      -75.191     464.879     218.320
  C      -74.008     463.070     217.388
  O      -73.001     462.084     217.645
  C      -75.419     462.577     217.647
  O      -75.458     461.697     218.781
  C      -76.163     463.895     217.939
  N      -76.980     464.337     216.817
  C      -78.137     463.599     216.565
  O      -78.449     462.617     217.232
  N      -78.891     464.016     215.510
  C      -78.596     465.042     214.660
  O      -79.290     465.321     213.688
  C      -77.348     465.757     214.938
  C      -76.617     465.384     215.990
  O      -73.085     467.510     214.895
  O      -73.963     468.117     217.229
  H      -74.992     460.876     218.531
  H      -73.996     467.805     214.677
  H      -79.759     463.504     215.325
  H      -77.074     466.579     214.281
  H      -75.668     465.899     216.212
  H      -76.817     463.770     218.816
  H      -75.819     462.010     216.795
  H      -73.924     463.428     216.350
  H      -73.723     463.866     219.382
  H      -72.780     466.058     218.745
  H      -71.805     464.741     218.040
  P      -72.018     461.717     216.427
  C      -73.690     460.070     215.273
  O      -72.462     460.250     215.961
  O      -70.631     461.495     217.224
  O      -71.953     462.778     215.380
  H      -70.784     461.133     218.127
  H      -73.917     460.928     214.614
  H      -74.495     459.957     216.004
  H      -73.634     459.183     214.672
  H      -70.108     468.762     218.001
  H      -71.443     467.969     218.801
  H      -71.711     469.453     217.918

 3  4  5  6  7  8  9  10  11  12  13  23  28  29  30  31  32 0
 6-311+G(2d,p)
 ****
 33  34 0
 6-311+G(2d,p)
 ****
 1  2  14  15  16  17  18  19  20  21  22  24  25  26 0
 3-21G
 ****
 27  35  36  37  38  39  40  41  42  43  44  45 0
 3-21G
 ****


