%nproc=1
%NoSave
%Mem=1900MB
#P OB98/GEN NMR

erre ene a

0 1
  C      -38.396     -15.790     138.656
  O      -38.010     -15.337     139.937
  H      -37.592     -16.404     138.243
  H      -38.568     -14.942     137.987
  H      -39.302     -16.396     138.730
  P      -39.009     -14.328     140.681
  C      -38.044     -11.924     140.469
  O      -38.899     -12.920     139.923
  C      -36.657     -12.043     139.842
  O      -36.770     -12.028     138.399
  C      -35.720     -10.894     140.185
  O      -35.147     -11.021     141.476
  C      -34.688     -11.024     139.078
  O      -33.677     -11.988     139.406
  C      -35.536     -11.491     137.881
  N      -35.766     -10.410     136.926
  C      -35.561     -10.734     135.588
  O      -35.213     -11.850     135.208
  N      -35.736      -9.713     134.694
  C      -36.035      -8.420     135.006
  O      -36.121      -7.540     134.158
  C      -36.222      -8.132     136.436
  C      -36.077      -9.124     137.319
  O      -38.285     -14.064     142.083
  O      -40.401     -14.836     140.857
  H      -38.757     -14.537     142.792
  H      -33.247     -12.224     138.560
  H      -35.594      -9.927     133.719
  H      -36.459      -7.114     136.720
  H      -36.199      -8.935     138.381
  H      -35.035     -12.311     137.352
  H      -34.186     -10.077     138.901
  H      -36.240      -9.935     140.076
  H      -36.219     -13.003     140.144
  H      -37.956     -12.067     141.551
  H      -38.477     -10.938     140.279
  P      -34.642      -9.682     142.203
  C      -32.060      -9.206     142.376
  O      -33.212      -9.350     141.561
  O      -34.313     -10.248     143.662
  O      -35.644      -8.579     142.162
  H      -34.079     -11.193     143.640
  H      -31.213      -8.987     141.760
  H      -31.886     -10.116     142.912
  H      -32.212      -8.406     143.070

 6  7  8  9  10  11  12  13  14  15  16  27  31  32  33  34  35 0
 6-311+G(2d,p)
 ****
 36  37 0
 6-311+G(2d,p)
 ****
 1  2  3  4  5  17  18  19  20  21  22  23  24  25 0
 3-21G
 ****
 26  28  29  30  38  39  40  41  42  43  44  45 0
 3-21G
 ****


