%nproc=1
%NoSave
%Mem=1900MB
#P OB98/GEN NMR

erre ene a

0 1
  C       25.543     -12.336     156.521
  O       24.948     -13.596     156.280
  H       25.556     -12.153     157.597
  H       24.956     -11.549     156.038
  H       26.571     -12.316     156.147
  P       25.032     -14.176     154.788
  C       22.468     -14.602     154.665
  O       23.773     -15.160     154.608
  C       21.516     -15.568     155.370
  O       21.843     -15.593     156.788
  C       20.034     -15.184     155.250
  O       19.261     -16.389     155.146
  C       19.743     -14.516     156.581
  O       18.368     -14.532     156.945
  C       20.623     -15.349     157.518
  N       20.897     -14.670     158.784
  C       20.396     -15.254     159.945
  O       19.819     -16.342     159.991
  N       20.584     -14.534     161.098
  C       21.181     -13.311     161.196
  O       21.300     -12.705     162.255
  C       21.680     -12.741     159.938
  C       21.514     -13.434     158.807
  O       26.278     -15.179     154.862
  O       25.181     -13.155     153.709
  H       27.107     -14.711     154.649
  H       18.300     -14.164     157.851
  H       20.226     -14.942     161.947
  H       22.153     -11.765     159.974
  H       21.853     -13.031     157.855
  H       20.161     -16.323     157.717
  H       20.075     -13.475     156.557
  H       19.808     -14.528     154.402
  H       21.690     -16.581     154.981
  H       22.106     -14.420     153.647
  H       22.509     -13.646     155.202
  P       18.267     -16.523     153.890
  C       15.993     -16.152     155.145
  O       16.880     -17.055     154.497
  O       18.890     -17.789     153.142
  O       18.187     -15.275     153.075
  H       19.253     -18.454     153.751
  H       15.127     -16.683     155.482
  H       15.697     -15.387     154.457
  H       16.487     -15.706     155.983

 6  7  8  9  10  11  12  13  14  15  16  27  31  32  33  34  35 0
 6-311+G(2d,p)
 ****
 36  37 0
 6-311+G(2d,p)
 ****
 1  2  3  4  5  17  18  19  20  21  22  23  24  25 0
 3-21G
 ****
 26  28  29  30  38  39  40  41  42  43  44  45 0
 3-21G
 ****


