%nproc=1
%NoSave
%Mem=1900MB
#P OB98/GEN NMR

erre ene a

0 1
  C      479.716    -416.106     -41.972
  O      480.263    -415.035     -41.232
  P      480.818    -415.272     -39.741
  C      479.867    -416.209     -37.544
  O      479.592    -415.877     -38.899
  C      478.943    -417.332     -37.072
  O      479.320    -418.609     -37.677
  C      478.993    -417.598     -35.577
  O      478.511    -416.586     -34.718
  C      478.316    -418.958     -35.489
  O      476.891    -418.829     -35.525
  C      478.832    -419.638     -36.786
  N      479.867    -420.643     -36.505
  C      479.416    -421.955     -36.395
  O      478.237    -422.287     -36.522
  N      480.374    -422.885     -36.104
  C      481.700    -422.634     -35.869
  O      482.498    -423.514     -35.564
  C      482.107    -421.225     -35.978
  C      481.185    -420.310     -36.287
  O      481.479    -414.093     -39.118
  O      481.780    -416.548     -39.909
  H      476.638    -418.153     -34.868
  H      481.339    -417.350     -40.241
  H      480.078    -423.845     -36.003
  H      483.153    -420.993     -35.809
  H      481.461    -419.259     -36.377
  H      478.001    -420.141     -37.308
  H      478.571    -419.488     -34.564
  H      480.049    -417.747     -35.289
  H      477.927    -417.103     -37.413
  H      479.693    -415.326     -36.923
  H      480.924    -416.490     -37.436
  P      478.630    -416.655     -33.124
  C      477.938    -418.321     -31.265
  O      477.760    -417.888     -32.602
  O      478.500    -415.355     -32.396
  O      480.127    -417.198     -32.931
  H      480.500    -416.842     -32.106
  H      477.301    -419.199     -31.099
  H      477.642    -417.542     -30.568
  H      478.985    -418.609     -31.094
  H      479.404    -415.753     -42.933
  H      478.873    -416.507     -41.449
  H      480.456    -416.869     -42.095

 3  4  5  6  7  8  9  10  11  12  13  23  28  29  30  31  32 0
 6-311+G(2d,p)
 ****
 33  34 0
 6-311+G(2d,p)
 ****
 1  2  14  15  16  17  18  19  20  21  22  24  25  26  27 0
 3-21G
 ****
 35  36  37  38  39  40  41  42  43  44  45 0
 3-21G
 ****


