%nproc=1
%NoSave
%Mem=1900MB
#P OB98/GEN NMR

erre ene a

0 1
  C       30.158       2.208    -614.518
  O       30.654       3.503    -614.244
  H       29.607       1.851    -613.644
  H       30.988       1.524    -614.714
  H       29.482       2.231    -615.379
  P       31.349       4.283    -615.458
  C       32.401       6.224    -614.031
  O       32.609       5.079    -614.853
  C       33.634       6.467    -613.158
  O       33.864       5.361    -612.262
  C       34.932       6.574    -613.944
  O       35.030       7.772    -614.681
  C       35.945       6.460    -612.813
  O       36.081       7.704    -612.112
  C       35.274       5.394    -611.910
  N       35.892       4.082    -612.040
  C       35.512       3.129    -611.086
  O       34.694       3.422    -610.210
  N       36.090       1.887    -611.128
  C       36.950       1.604    -612.056
  N       37.496       0.358    -612.037
  C       37.363       2.566    -613.095
  C       36.802       3.774    -613.026
  O       30.305       5.458    -615.763
  O       31.699       3.440    -616.642
  H       35.210       7.890    -611.712
  H       30.076       5.988    -614.981
  H       38.079       2.285    -613.854
  H       37.050       4.543    -613.750
  H       35.330       5.693    -610.852
  H       36.938       6.187    -613.177
  H       35.055       5.699    -614.596
  H       33.453       7.366    -612.559
  H       37.207      -0.268    -611.292
  H       31.510       6.105    -613.413
  H       38.199       0.038    -612.685
  H       32.236       7.077    -614.696
  P       36.163       7.952    -615.802
  C       34.948      10.146    -616.387
  O       36.203       9.521    -616.150
  O       36.034       7.056    -616.986
  O       37.527       7.751    -614.979
  H       37.660       8.388    -614.253
  H       35.101      11.182    -616.607
  H       34.333      10.053    -615.516
  H       34.465       9.673    -617.216

 6  7  8  9  10  11  12  13  14  15  16  26  30  31  32  33  35 0
 6-311+G(2d,p)
 ****
 37  38 0
 6-311+G(2d,p)
 ****
 1  2  3  4  5  17  18  19  20  21  22  23  24  25 0
 3-21G
 ****
 27  28  29  34  36  39  40  41  42  43  44  45  46 0
 3-21G
 ****


