%nproc=1
%NoSave
%Mem=1900MB
#P OB98/GEN NMR

erre ene a

0 1
  C      765.173     119.877      -2.698
  O      766.173     120.870      -2.799
  P      765.694     122.399      -2.652
  C      766.935     124.625      -2.079
  O      767.028     123.280      -2.499
  C      768.164     125.011      -1.259
  O      768.198     124.248      -0.027
  C      769.502     124.728      -1.965
  O      769.812     125.779      -2.856
  C      770.460     124.622      -0.781
  O      770.855     125.932      -0.326
  C      769.589     123.912       0.272
  N      772.622     120.133       1.712
  C      772.854     121.490       1.697
  N      774.048     121.917       2.170
  N      771.984     122.371       1.253
  C      770.838     121.808       0.807
  C      770.502     120.468       0.747
  C      771.449     119.526       1.288
  O      771.263     118.312       1.413
  N      769.269     120.277       0.193
  C      768.844     121.501      -0.065
  N      769.745     122.466       0.295
  O      765.032     122.439      -1.194
  O      764.761     122.881      -3.718
  H      771.270     126.419      -1.077
  H      764.059     122.363      -1.250
  H      773.321     119.502       2.090
  H      767.875     121.741      -0.495
  H      769.804     124.282       1.289
  H      771.374     124.094      -1.036
  H      774.777     121.300       2.513
  H      769.455     123.766      -2.489
  H      774.234     122.908       2.165
  H      768.095     126.072      -0.994
  H      766.033     124.755      -1.461
  H      766.847     125.281      -2.964
  P      770.697     125.403      -4.156
  C      770.515     125.828      -6.718
  O      769.940     126.001      -5.444
  O      770.499     123.818      -4.291
  O      772.131     125.779      -4.042
  H      771.337     123.419      -4.602
  H      769.725     125.777      -7.460
  H      771.115     124.915      -6.765
  H      771.155     126.684      -6.940
  H      765.617     118.910      -2.812
  H      764.443     120.027      -3.466
  H      764.701     119.942      -1.740

 3  4  5  6  7  8  9  10  11  12  23  26  30  31 0
 6-311+G(2d,p)
 ****
 33  35  36  37  38 0
 6-311+G(2d,p)
 ****
 1  2  13  14  15  16  17  18  19  20  21  22  24  25 0
 3-21G
 ****
 27  28  29  32  34  39  40  41  42  43  44  45  46  47  48  49 0
 3-21G
 ****


