%nproc=1
%NoSave
%Mem=1900MB
#P OB98/GEN NMR

erre ene a

0 1
  C     -146.167     280.082     -53.053
  O     -147.463     279.528     -52.916
  H     -145.748     279.767     -54.016
  H     -145.519     279.713     -52.253
  H     -146.204     281.176     -53.030
  P     -148.407     280.044     -51.729
  C     -149.436     282.256     -52.567
  O     -149.611     280.854     -52.418
  C     -150.645     282.878     -53.274
  O     -151.016     282.023     -54.404
  C     -151.898     283.018     -52.380
  O     -152.613     284.186     -52.822
  C     -152.652     281.750     -52.733
  O     -153.983     281.789     -52.285
  C     -152.417     281.719     -54.246
  N     -152.755     280.441     -54.863
  C     -153.975     280.350     -55.525
  O     -154.768     281.294     -55.634
  N     -154.277     279.126     -56.062
  C     -153.494     278.008     -55.994
  O     -153.806     276.938     -56.513
  C     -152.230     278.158     -55.255
  C     -151.921     279.347     -54.735
  O     -147.716     280.763     -50.618
  O     -149.124     278.707     -51.210
  H     -148.660     278.370     -50.422
  H     -154.502     282.440     -52.809
  H     -155.157     279.047     -56.545
  H     -151.596     277.280     -55.166
  H     -150.999     279.492     -54.179
  H     -152.979     282.518     -54.743
  H     -152.182     280.888     -52.250
  H     -151.653     283.117     -51.316
  H     -150.354     283.846     -53.698
  H     -148.530     282.430     -53.158
  H     -149.311     282.713     -51.576
  P     -152.532     285.600     -52.070
  C     -150.417     287.001     -52.533
  O     -151.717     286.645     -52.981
  O     -152.020     285.511     -50.665
  O     -154.032     286.177     -52.080
  H     -154.196     286.664     -51.246
  H     -149.981     287.697     -53.219
  H     -149.806     286.124     -52.478
  H     -150.484     287.450     -51.564

 6  7  8  9  10  11  12  13  14  15  16  27  31  32  33  34  35 0
 6-311+G(2d,p)
 ****
 36  37 0
 6-311+G(2d,p)
 ****
 1  2  3  4  5  17  18  19  20  21  22  23  24  25 0
 3-21G
 ****
 26  28  29  30  38  39  40  41  42  43  44  45 0
 3-21G
 ****


