%nproc=1
%NoSave
%Mem=1900MB
#P OB98/GEN NMR

erre ene a

0 1
  C      236.522      -8.595    -135.749
  O      237.167      -9.255    -136.826
  P      236.600     -10.691    -137.268
  C      236.144     -12.922    -135.948
  O      236.730     -11.630    -135.975
  C      237.168     -13.955    -135.466
  O      238.169     -14.168    -136.486
  C      237.939     -13.551    -134.216
  O      237.164     -13.707    -133.042
  C      239.152     -14.471    -134.307
  O      238.817     -15.784    -133.827
  C      239.409     -14.511    -135.830
  N      240.495     -13.627    -136.255
  C      241.772     -13.974    -135.820
  O      242.002     -14.959    -135.119
  N      242.781     -13.128    -136.204
  C      242.635     -11.967    -136.909
  O      243.569     -11.225    -137.190
  C      241.259     -11.639    -137.312
  C      240.267     -12.470    -136.973
  O      237.770     -11.178    -138.247
  O      235.244     -10.622    -137.886
  H      238.627     -10.779    -138.012
  H      238.451     -15.665    -132.930
  H      243.721     -13.370    -135.922
  H      241.100     -10.721    -137.864
  H      239.246     -12.240    -137.254
  H      239.648     -15.535    -136.147
  H      240.004     -14.110    -133.716
  H      238.265     -12.507    -134.304
  H      236.644     -14.908    -135.302
  H      235.804     -13.182    -136.953
  H      235.274     -12.904    -135.281
  P      237.309     -12.553    -131.923
  C      239.298     -11.707    -130.456
  O      238.787     -12.694    -131.329
  O      236.357     -13.123    -130.765
  O      236.937     -11.192    -132.418
  H      236.458     -14.080    -130.627
  H      240.132     -12.137    -129.895
  H      238.538     -11.362    -129.753
  H      239.669     -10.860    -131.042
  H      237.003      -7.657    -135.566
  H      236.582      -9.203    -134.871
  H      235.495      -8.427    -135.997

 3  4  5  6  7  8  9  10  11  12  13  24  28  29  30  31  32 0
 6-311+G(2d,p)
 ****
 33  34 0
 6-311+G(2d,p)
 ****
 1  2  14  15  16  17  18  19  20  21  22  23  25  26  27 0
 3-21G
 ****
 35  36  37  38  39  40  41  42  43  44  45 0
 3-21G
 ****


