%nproc=1
%NoSave
%Mem=1900MB
#P OB98/GEN NMR

erre ene a

0 1
  C     -485.830    -483.559     683.576
  O     -485.873    -484.973     683.472
  P     -484.492    -485.734     683.178
  C     -483.675    -486.199     685.610
  O     -483.522    -485.431     684.417
  C     -482.375    -486.914     685.948
  O     -481.329    -485.957     686.218
  C     -482.442    -487.802     687.185
  O     -483.129    -489.014     686.908
  C     -480.957    -487.964     687.494
  O     -480.379    -488.947     686.619
  C     -480.406    -486.568     687.157
  N     -477.522    -485.450     691.240
  C     -477.394    -486.385     690.281
  N     -478.213    -486.639     689.235
  C     -479.261    -485.793     689.234
  C     -479.539    -484.801     690.165
  C     -478.609    -484.640     691.206
  N     -478.745    -483.685     692.193
  N     -480.712    -484.154     689.853
  C     -481.132    -484.731     688.752
  N     -480.283    -485.720     688.331
  O     -483.851    -484.879     681.989
  O     -484.637    -487.175     682.811
  H     -480.625    -488.698     685.703
  H     -483.349    -485.452     681.379
  H     -476.512    -487.025     690.350
  H     -482.039    -484.472     688.223
  H     -479.425    -486.607     686.671
  H     -480.766    -488.285     688.526
  H     -482.942    -487.275     688.004
  H     -482.074    -487.502     685.066
  H     -484.464    -486.943     685.462
  H     -478.118    -483.739     692.977
  H     -479.621    -483.175     692.251
  H     -483.979    -485.529     686.424
  P     -484.131    -489.568     688.033
  C     -486.187    -488.582     686.840
  O     -485.354    -488.527     687.990
  O     -483.368    -489.149     689.377
  O     -484.489    -491.004     687.908
  H     -483.073    -488.219     689.360
  H     -487.000    -487.868     686.966
  H     -486.601    -489.587     686.721
  H     -485.606    -488.309     685.947
  H     -486.813    -483.186     683.772
  H     -485.468    -483.145     682.658
  H     -485.176    -483.280     684.376

 3  4  5  6  7  8  9  10  11  12  22  25  29  30  31  32 0
 6-311+G(2d,p)
 ****
 33  36  37 0
 6-311+G(2d,p)
 ****
 1  2  13  14  15  16  17  18  19  20  21  23  24  26 0
 3-21G
 ****
 27  28  34  35  38  39  40  41  42  43  44  45  46  47  48 0
 3-21G
 ****


