%nproc=1
%NoSave
%Mem=1900MB
#P OB98/GEN NMR

erre ene a

0 1
  C     -366.843    -619.599     343.049
  O     -366.287    -619.974     341.803
  H     -366.102    -619.785     343.833
  H     -367.739    -620.185     343.261
  H     -367.089    -618.532     343.041
  P     -367.263    -619.879     340.528
  C     -367.899    -622.403     340.745
  O     -367.285    -621.382     339.960
  C     -367.785    -623.745     340.033
  O     -368.688    -623.801     338.903
  C     -366.402    -624.046     339.456
  O     -365.462    -624.462     340.435
  C     -366.757    -625.166     338.497
  O     -367.001    -626.379     339.237
  C     -368.063    -624.616     337.875
  N     -367.829    -623.835     336.657
  C     -368.835    -623.851     335.689
  O     -369.862    -624.508     335.866
  N     -368.641    -623.162     334.522
  C     -367.552    -622.479     334.341
  N     -367.418    -621.815     333.162
  C     -366.466    -622.414     335.338
  C     -366.675    -623.108     336.462
  O     -366.374    -619.113     339.441
  O     -368.604    -619.278     340.773
  H     -367.390    -627.008     338.603
  H     -366.827    -619.126     338.564
  H     -365.574    -621.848     335.136
  H     -365.920    -623.108     337.244
  H     -368.757    -625.431     337.635
  H     -365.967    -625.381     337.780
  H     -366.013    -623.195     338.884
  H     -368.103    -624.527     340.738
  H     -368.153    -621.917     332.470
  H     -368.955    -622.136     340.884
  H     -366.550    -621.383     332.866
  H     -367.415    -622.467     341.723
  P     -364.237    -623.474     340.747
  C     -362.765    -624.329     338.776
  O     -362.917    -624.187     340.186
  O     -364.070    -623.592     342.337
  O     -364.440    -622.059     340.310
  H     -363.788    -622.738     342.718
  H     -361.839    -624.821     338.565
  H     -362.768    -623.362     338.318
  H     -363.575    -624.910     338.387

 6  7  8  9  10  11  12  13  14  15  16  26  30  31  32  33  35 0
 6-311+G(2d,p)
 ****
 37  38 0
 6-311+G(2d,p)
 ****
 1  2  3  4  5  17  18  19  20  21  22  23  24  25 0
 3-21G
 ****
 27  28  29  34  36  39  40  41  42  43  44  45  46 0
 3-21G
 ****


