%nproc=1
%NoSave
%Mem=1900MB
#P OB98/GEN NMR

erre ene a

0 1
  C     -348.086     363.757    -249.981
  O     -348.914     364.226    -251.023
  H     -348.091     362.663    -249.995
  H     -348.481     364.095    -249.019
  H     -347.054     364.104    -250.096
  P     -348.740     365.735    -251.522
  C     -348.928     368.087    -250.465
  O     -349.279     366.710    -250.364
  C     -350.155     368.992    -250.358
  O     -350.876     368.692    -249.139
  C     -349.788     370.479    -250.301
  O     -349.639     371.093    -251.567
  C     -350.968     371.067    -249.536
  O     -352.037     371.430    -250.423
  C     -351.402     369.921    -248.619
  N     -351.827     372.604    -244.283
  C     -352.339     372.893    -245.535
  N     -353.012     374.061    -245.650
  N     -352.181     372.111    -246.575
  C     -351.403     371.035    -246.333
  C     -350.827     370.652    -245.136
  C     -351.064     371.485    -243.973
  O     -350.655     371.263    -242.844
  N     -350.067     369.519    -245.282
  C     -350.114     369.265    -246.577
  N     -350.981     370.111    -247.237
  O     -349.873     365.886    -252.650
  O     -347.390     366.081    -252.074
  H     -351.787     372.260    -250.876
  H     -349.573     366.517    -253.334
  H     -352.004     373.224    -243.516
  H     -349.587     368.462    -247.078
  H     -352.493     369.814    -248.599
  H     -350.674     371.978    -249.009
  H     -353.090     374.738    -244.905
  H     -348.885     370.630    -249.703
  H     -353.237     374.400    -246.587
  H     -350.839     368.779    -251.195
  H     -348.455     368.211    -251.445
  H     -348.189     368.350    -249.708
  P     -348.483     372.170    -251.827
  C     -347.725     374.404    -250.671
  O     -348.706     373.403    -250.840
  O     -348.858     372.772    -253.265
  O     -347.089     371.630    -251.793
  H     -348.327     372.350    -253.962
  H     -348.075     375.132    -249.969
  H     -347.533     374.878    -251.611
  H     -346.823     373.961    -250.305

 6  7  8  9  10  11  12  13  14  15  26  29  33  34 0
 6-311+G(2d,p)
 ****
 36  38  39  40  41 0
 6-311+G(2d,p)
 ****
 1  2  3  4  5  16  17  18  19  20  21  22  23  24  25 0
 3-21G
 ****
 27  28  30  31  32  35  37  42  43  44  45  46  47 0
 3-21G
 ****
 48  49 0
 3-21G
 ****


