%nproc=1
%NoSave
%Mem=1900MB
#P OB98/GEN NMR

erre ene a

0 1
  C      276.645    -135.255     -20.000
  O      275.294    -134.908     -20.201
  H      276.990    -134.781     -19.077
  H      277.262    -134.889     -20.824
  H      276.756    -136.337     -19.900
  P      274.535    -135.435     -21.516
  C      273.543    -137.685     -20.780
  O      273.291    -136.298     -20.968
  C      272.318    -138.522     -21.147
  O      272.696    -139.922     -21.243
  C      271.172    -138.421     -20.128
  O      269.935    -138.207     -20.810
  C      271.160    -139.791     -19.469
  O      269.894    -140.130     -18.910
  C      271.635    -140.674     -20.629
  N      272.071    -141.987     -20.175
  C      271.452    -143.086     -20.776
  O      270.592    -142.916     -21.642
  N      271.777    -144.346     -20.347
  C      272.614    -144.495     -19.368
  N      272.871    -145.769     -18.970
  C      273.271    -143.361     -18.686
  C      272.961    -142.147     -19.138
  O      275.408    -136.138     -22.499
  O      273.822    -134.138     -22.123
  H      269.961    -141.023     -18.506
  H      273.643    -134.291     -23.081
  H      273.957    -143.539     -17.871
  H      273.392    -141.254     -18.698
  H      270.837    -140.807     -21.372
  H      271.902    -139.810     -18.660
  H      271.317    -137.627     -19.397
  H      271.983    -138.226     -22.150
  H      272.393    -146.517     -19.461
  H      273.820    -137.851     -19.732
  H      273.484    -146.008     -18.206
  H      274.379    -137.975     -21.424
  P      269.262    -136.761     -20.621
  C      270.078    -135.744     -22.865
  O      268.970    -136.158     -22.079
  O      270.466    -135.866     -20.064
  O      268.099    -136.765     -19.686
  H      270.304    -135.639     -19.129
  H      269.729    -135.367     -23.804
  H      270.726    -136.578     -23.035
  H      270.614    -134.975     -22.349

 6  7  8  9  10  11  12  13  14  15  16  26  30  31  32  33  35 0
 6-311+G(2d,p)
 ****
 37  38 0
 6-311+G(2d,p)
 ****
 1  2  3  4  5  17  18  19  20  21  22  23  24  25 0
 3-21G
 ****
 27  28  29  34  36  39  40  41  42  43  44  45  46 0
 3-21G
 ****


