%nproc=1
%NoSave
%Mem=1900MB
#P OB98/GEN NMR

erre ene a

0 1
  C      -72.792     299.474     516.809
  O      -71.959     300.634     516.869
  P      -72.212     301.656     518.086
  C      -69.675     301.737     518.661
  O      -70.988     301.492     519.122
  C      -68.822     300.473     518.747
  O      -69.350     299.427     517.924
  C      -67.387     300.661     518.281
  O      -66.577     301.267     519.276
  C      -66.957     299.215     518.062
  O      -66.563     298.621     519.310
  C      -68.255     298.558     517.545
  N      -67.925     295.238     513.723
  C      -67.849     295.029     515.089
  N      -67.686     293.750     515.495
  N      -67.923     295.993     515.982
  C      -68.109     297.216     515.430
  C      -68.204     297.546     514.090
  C      -68.091     296.478     513.118
  O      -68.116     296.614     511.899
  N      -68.406     298.891     513.930
  C      -68.465     299.369     515.158
  N      -68.285     298.392     516.108
  O      -73.443     300.980     518.861
  O      -72.519     303.048     517.652
  H      -66.475     297.653     519.152
  H      -73.962     301.664     519.331
  H      -67.851     294.465     513.092
  H      -68.653     300.409     515.416
  H      -68.434     297.589     518.006
  H      -66.099     299.117     517.372
  H      -67.699     292.956     514.873
  H      -67.343     301.208     517.335
  H      -67.671     293.579     516.496
  H      -68.826     300.128     519.799
  H      -69.213     302.535     519.264
  H      -69.724     302.111     517.629
  P      -66.011     302.742     518.964
  C      -66.367     304.201     521.086
  O      -66.902     303.739     519.857
  O      -66.519     303.016     517.466
  O      -64.539     302.888     519.096
  H      -65.909     303.626     517.017
  H      -65.319     304.486     520.989
  H      -66.467     303.416     521.849
  H      -66.929     305.078     521.409
  H      -72.521     298.884     515.959
  H      -73.816     299.774     516.723
  H      -72.663     298.896     517.700

 3  4  5  6  7  8  9  10  11  12  23  26  30  31  33  0
 6-311+G(2d,p)
 ****
 35  36  37  38 0
 6-311+G(2d,p)
 ****
 1  2  13  14  15  16  17  18  19  20  21  22  24  25  27  28  29 0
 3-21G
 ****
 32  34  39  40  41  42  43  44  45  46  47  48  49 0
 3-21G
 ****


