%nproc=1
%NoSave
%Mem=1900MB
#P OB98/GEN NMR

erre ene a

0 1
  C      130.065     604.350     485.427
  O      129.061     603.414     485.101
  H      130.784     604.402     484.600
  H      130.596     604.033     486.332
  H      129.632     605.342     485.580
  P      127.894     603.207     486.180
  C      127.925     600.800     487.169
  O      128.444     602.126     487.233
  C      128.764     599.962     486.215
  O      130.151     599.962     486.657
  C      128.361     598.497     486.153
  O      127.216     598.288     485.348
  C      129.619     597.863     485.588
  O      129.673     597.968     484.156
  C      130.737     598.708     486.222
  N      133.534     594.662     487.604
  C      133.140     595.118     486.396
  N      132.409     596.220     486.112
  C      132.092     596.882     487.245
  C      132.424     596.536     488.535
  C      133.181     595.366     488.698
  N      133.558     594.880     489.934
  N      131.887     597.443     489.429
  C      131.247     598.329     488.686
  N      131.359     598.031     487.351
  O      126.779     602.410     485.358
  O      127.351     604.459     486.781
  H      128.826     597.616     483.831
  H      126.080     603.024     485.069
  H      133.455     594.525     485.543
  H      130.706     599.187     489.058
  H      131.530     598.947     485.513
  H      129.677     596.810     485.848
  H      128.187     598.106     487.171
  H      128.734     600.424     485.220
  H      126.885     600.827     486.812
  H      127.935     600.366     488.180
  H      134.038     594.011     489.986
  H      133.202     595.340     490.772
  P      126.292     597.013     485.672
  C      126.480     594.957     484.061
  O      127.056     595.724     485.125
  O      125.047     597.174     484.673
  O      125.848     596.918     487.089
  H      124.232     596.862     485.104
  H      127.124     594.135     483.825
  H      126.362     595.578     483.197
  H      125.524     594.585     484.366

 6  7  8  9  10  11  12  13  14  15  25  28  32  33  34  35 0
 6-311+G(2d,p)
 ****
 36  37  40 0
 6-311+G(2d,p)
 ****
 1  2  3  4  5  16  17  18  19  20  21  22  23  24 0
 3-21G
 ****
 26  27  29  30  31  38  39 41  42  43  44  45  46  47  48 0
 3-21G
 ****


