%nproc=1
%NoSave
%Mem=1900MB
#P OB98/GEN NMR

erre ene a

0 1
  C     -430.381     454.971     860.479
  O     -429.954     454.027     859.523
  H     -430.629     455.901     859.966
  H     -429.574     455.171     861.188
  H     -431.264     454.620     861.017
  P     -429.799     452.492     859.963
  C     -430.958     451.268     858.004
  O     -429.720     451.637     858.606
  C     -430.765     450.099     857.032
  O     -429.742     450.454     856.062
  C     -430.326     448.798     857.716
  O     -430.864     447.710     856.948
  C     -428.817     448.860     857.551
  O     -428.224     447.593     857.742
  C     -428.709     449.455     856.149
  N     -427.381     450.009     855.871
  C     -426.794     449.644     854.664
  O     -427.323     448.867     853.859
  N     -425.547     450.160     854.427
  C     -424.829     450.936     855.278
  O     -423.700     451.344     855.030
  C     -425.482     451.253     856.557
  C     -426.704     450.786     856.795
  O     -430.801     451.996     860.955
  O     -428.304     452.387     860.527
  H     -428.667     446.921     857.178
  H     -428.251     451.702     861.217
  H     -425.110     449.915     853.551
  H     -424.931     451.859     857.271
  H     -427.210     451.003     857.732
  H     -428.913     448.694     855.382
  H     -428.374     449.541     858.290
  H     -430.638     448.721     858.760
  H     -431.705     449.956     856.472
  H     -431.336     452.146     857.458
  H     -431.676     450.995     858.784
  P     -432.385     447.233     857.099
  C     -432.602     446.977     854.542
  O     -432.780     446.356     855.803
  O     -433.348     448.339     857.406
  O     -432.369     446.160     858.282
  H     -433.233     446.148     858.733
  H     -432.896     446.301     853.767
  H     -431.572     447.239     854.415
  H     -433.203     447.861     854.492

 6  7  8  9  10  11  12  13  14  15  16  26  31  32  33  34  35 0
 6-311+G(2d,p)
 ****
 36  37 0
 6-311+G(2d,p)
 ****
 1  2  3  4  5  17  18  19  20  21  22  23  24  25 0
 3-21G
 ****
 27  28  29  30  38  39  40  41  42  43  44  45 0
 3-21G
 ****


