%nproc=1
%NoSave
%Mem=1900MB
#P OB98/GEN NMR

erre ene a

0 1
  C     -661.500      29.891     480.501
  O     -660.479      30.030     479.535
  H     -661.822      28.845     480.519
  H     -662.363      30.508     480.231
  H     -661.139      30.160     481.496
  P     -659.727      31.436     479.413
  C     -657.232      30.790     479.548
  O     -658.359      31.315     480.242
  C     -656.554      29.715     480.404
  O     -657.393      28.538     480.483
  C     -655.222      29.232     479.842
  O     -654.191      30.172     480.076
  C     -655.053      27.915     480.578
  O     -654.549      28.125     481.903
  C     -656.511      27.391     480.618
  N     -656.787      26.400     479.583
  C     -657.615      25.333     479.945
  O     -658.066      25.201     481.082
  N     -657.876      24.419     478.965
  C     -657.314      24.394     477.719
  O     -657.506      23.500     476.905
  C     -656.436      25.524     477.391
  C     -656.214      26.460     478.318
  O     -660.549      32.642     479.730
  O     -659.214      31.464     477.887
  H     -654.456      27.241     482.312
  H     -659.784      32.064     477.371
  H     -658.456      23.632     479.215
  H     -655.980      25.553     476.407
  H     -655.563      27.309     478.101
  H     -656.734      26.945     481.590
  H     -654.371      27.242     480.071
  H     -655.314      29.033     478.768
  H     -656.425      30.114     481.418
  H     -656.526      31.603     479.361
  H     -657.565      30.371     478.592
  P     -653.689      31.130     478.894
  C     -652.857      33.106     480.308
  O     -653.843      32.649     479.384
  O     -654.274      30.837     477.549
  O     -652.104      30.917     478.876
  H     -651.828      30.561     478.012
  H     -653.055      34.125     480.566
  H     -651.888      33.033     479.861
  H     -652.889      32.502     481.191

 6  7  8  9  10  11  12  13  14  15  16  26  31  32  33  34  35 0
 6-311+G(2d,p)
 ****
 36  37 0
 6-311+G(2d,p)
 ****
 1  2  3  4  5  17  18  19  20  21  22  23  24  25 0
 3-21G
 ****
 27  28  29  30  38  39  40  41  42  43  44  45 0
 3-21G
 ****


