%nproc=1
%NoSave
%Mem=1900MB
#P OB98/GEN NMR

erre ene a

0 1
  C      164.501    -400.984       4.424
  O      163.166    -400.544       4.542
  H      164.511    -401.929       3.876
  H      164.924    -401.150       5.419
  H      165.112    -400.258       3.882
  P      162.890    -399.030       4.978
  C      161.087    -398.400       3.243
  O      162.432    -398.233       3.663
  C      160.857    -397.772       1.864
  O      161.305    -396.396       1.876
  C      161.685    -398.500       0.801
  O      161.077    -398.442      -0.487
  C      162.979    -397.701       0.779
  O      163.710    -397.858      -0.434
  C      162.454    -396.287       1.015
  N      166.280    -393.015       0.237
  C      165.622    -393.824      -0.669
  N      166.058    -393.767      -1.947
  N      164.641    -394.623      -0.348
  C      164.363    -394.631       0.978
  C      164.960    -393.896       1.976
  C      166.018    -392.983       1.602
  O      166.649    -392.258       2.365
  N      164.421    -394.187       3.204
  C      163.506    -395.100       2.952
  N      163.423    -395.394       1.612
  O      164.354    -398.439       5.250
  O      161.998    -398.850       6.169
  H      164.509    -397.302      -0.369
  H      164.309    -397.690       5.870
  H      167.019    -392.407      -0.065
  H      162.877    -395.574       3.696
  H      162.125    -395.833       0.071
  H      163.618    -398.061       1.592
  H      166.915    -393.304      -2.206
  H      161.862    -399.544       1.064
  H      165.795    -394.549      -2.553
  H      159.787    -397.757       1.628
  H      160.451    -397.908       3.987
  H      160.822    -399.459       3.234
  P      160.845    -399.825      -1.258
  C      158.263    -399.394      -1.099
  O      159.340    -400.301      -0.970
  O      161.748    -400.865      -0.447
  O      161.208    -399.774      -2.704
  H      162.552    -401.082      -0.955
  H      157.346    -399.894      -0.867
  H      158.225    -399.026      -2.103
  H      158.403    -398.575      -0.424

 6  7  8  9  10  11  12  13  14  15  26  29  33  34 0
 6-311+G(2d,p)
 ****
 36  38  39  40  41 0
 6-311+G(2d,p)
 ****
 1  2  3  4  5  16  17  18  19  20  21  22  23  24  25 0
 3-21G
 ****
 27  28  30  31  32  35  37  42  43  44  45  46  47 0
 3-21G
 ****
 48  49 0
 3-21G
 ****


