%nproc=1
%NoSave
%Mem=1900MB
#P OB98/GEN NMR

erre ene a

0 1
  C     -351.351      14.072     -23.739
  O     -350.123      14.368     -24.372
  H     -351.947      13.446     -24.407
  H     -351.901      14.995     -23.543
  H     -351.181      13.532     -22.803
  P     -349.018      15.149     -23.507
  C     -347.199      13.295     -23.574
  O     -347.586      14.596     -23.988
  C     -346.574      12.527     -24.738
  O     -347.637      11.990     -25.567
  C     -345.670      13.383     -25.627
  O     -344.547      12.598     -26.035
  C     -346.538      13.692     -26.831
  O     -345.770      13.975     -28.003
  C     -347.404      12.430     -26.923
  N     -348.654      12.685     -27.632
  C     -348.589      12.727     -29.030
  O     -347.508      12.558     -29.603
  N     -349.723      13.012     -29.738
  C     -350.817      13.317     -29.108
  N     -351.904      13.621     -29.872
  C     -350.918      13.357     -27.638
  C     -349.809      13.023     -26.966
  O     -349.179      14.523     -22.047
  O     -349.138      16.637     -23.510
  H     -345.132      13.239     -28.138
  H     -348.966      15.181     -21.353
  H     -351.837      13.643     -27.158
  H     -349.788      13.030     -25.886
  H     -346.860      11.624     -27.441
  H     -347.164      14.567     -26.619
  H     -345.318      14.293     -25.128
  H     -346.022      11.665     -24.332
  H     -351.786      13.603     -30.878
  H     -348.086      12.755     -23.223
  H     -352.787      13.917     -29.493
  H     -346.490      13.375     -22.744
  P     -343.339      13.375     -26.740
  C     -341.640      12.943     -24.821
  O     -341.962      12.764     -26.197
  O     -343.399      14.831     -26.079
  O     -343.459      13.441     -28.226
  H     -343.724      15.477     -26.733
  H     -340.697      12.482     -24.613
  H     -342.399      12.492     -24.216
  H     -341.583      13.989     -24.601

 6  7  8  9  10  11  12  13  14  15  16  26  30  31  32  33  35 0
 6-311+G(2d,p)
 ****
 37  38 0
 6-311+G(2d,p)
 ****
 1  2  3  4  5  17  18  19  20  21  22  23  24  25 0
 3-21G
 ****
 27  28  29  34  36  39  40  41  42  43  44  45  46 0
 3-21G
 ****


