%nproc=1
%NoSave
%Mem=1900MB
#P OB98/GEN NMR

erre ene a

0 1
  C     -170.278      15.268    -234.003
  O     -169.894      14.426    -235.093
  P     -168.413      13.813    -235.028
  C     -169.236      11.534    -235.956
  O     -168.323      12.614    -236.091
  C     -169.662      11.013    -237.330
  O     -170.765      11.756    -237.882
  C     -168.552      11.078    -238.372
  O     -167.660       9.988    -238.200
  C     -169.342      11.006    -239.672
  O     -169.648       9.642    -240.026
  C     -170.628      11.772    -239.328
  N     -173.422      15.210    -241.793
  C     -173.638      13.856    -241.614
  N     -174.771      13.353    -242.147
  N     -172.817      13.069    -240.968
  C     -171.724      13.709    -240.490
  C     -171.415      15.047    -240.577
  C     -172.330      15.907    -241.296
  O     -172.195      17.113    -241.462
  N     -170.250      15.338    -239.911
  C     -169.796      14.157    -239.534
  N     -170.684      13.145    -239.802
  O     -168.380      13.075    -233.608
  O     -167.338      14.844    -235.135
  H     -170.113       9.218    -239.284
  H     -167.795      13.560    -232.996
  H     -174.085      15.766    -242.306
  H     -168.852      13.984    -239.041
  H     -171.516      11.271    -239.737
  H     -168.779      11.422    -240.511
  H     -175.450      13.900    -242.652
  H     -168.025      12.038    -238.303
  H     -174.952      12.365    -242.020
  H     -169.988       9.972    -237.200
  H     -170.116      11.854    -235.396
  H     -168.759      10.742    -235.369
  P     -166.211      10.092    -238.875
  C     -165.045       8.608    -237.095
  O     -165.390       8.786    -238.454
  O     -165.509      11.272    -238.047
  O     -166.227      10.398    -240.336
  H     -165.043      11.870    -238.662
  H     -164.990       7.534    -236.883
  H     -165.779       9.063    -236.427
  H     -164.064       9.054    -236.913
  H     -171.279      15.615    -234.156
  H     -169.614      16.106    -233.948
  H     -170.228      14.713    -233.089

 3  4  5  6  7  8  9  10  11  12  23  26  30  31 0
 6-311+G(2d,p)
 ****
 33  35  36  37  38 0
 6-311+G(2d,p)
 ****
 1  2  13  14  15  16  17  18  19  20  21  22  24  25 0
 3-21G
 ****
 27  28  29  32  34  39  40  41  42  43  44  45  46  47  48  49 0
 3-21G
 ****


