%nproc=1
%NoSave
%Mem=1900MB
#P OB98/GEN NMR

erre ene a

0 1
  C       77.333     101.300    -271.695
  O       77.052     100.960    -270.353
  H       77.851     102.263    -271.711
  H       76.407     101.390    -272.268
  H       77.983     100.544    -272.147
  P       76.258      99.586    -270.113
  C       74.014     100.804    -269.677
  O       74.744      99.923    -270.523
  C       72.635     101.092    -270.264
  O       72.753     101.957    -271.409
  C       71.883      99.857    -270.742
  O       71.221      99.228    -269.655
  C       70.890     100.477    -271.712
  O       69.772     101.019    -270.980
  C       71.703     101.615    -272.351
  N       70.967     101.351    -277.424
  C       70.102     101.525    -276.404
  N       70.357     101.532    -275.076
  C       71.668     101.342    -274.843
  C       72.667     101.145    -275.786
  C       72.276     101.161    -277.134
  N       73.159     100.982    -278.176
  N       73.893     100.979    -275.176
  C       73.647     101.129    -273.890
  N       72.311     101.313    -273.634
  O       76.452      98.950    -268.776
  O       76.767      98.717    -271.358
  H       70.142     101.641    -270.325
  H       76.818      99.267    -272.160
  H       69.064     101.678    -276.686
  H       74.398     101.135    -273.109
  H       71.091     102.517    -272.500
  H       70.484      99.751    -272.420
  H       72.536      99.167    -271.288
  H       72.050     101.636    -269.506
  H       74.562     101.744    -269.544
  H       72.769     100.815    -279.092
  H       74.108     100.711    -277.951
  H       73.917     100.321    -268.699
  P       70.781      97.686    -269.730
  C       68.428      98.202    -270.633
  O       69.695      97.622    -270.911
  O       70.358      97.098    -268.430
  O       72.049      96.945    -270.366
  H       71.985      95.985    -270.211
  H       67.793      98.099    -271.488
  H       68.553      99.240    -270.404
  H       67.983      97.704    -269.797

 6  7  8  9  10  11  12  13  14  15  25  28  32  33  34  35 0
 6-311+G(2d,p)
 ****
 36  39  40 0
 6-311+G(2d,p)
 ****
 1  2  3  4  5  16  17  18  19  20  21  22  23  24 0
 3-21G
 ****
 26  27  29  30  31  37  38  41  42  43  44  45  46  47 0
 3-21G
 ****
 48 0
 3-21G
 ****


