%nproc=1
%NoSave
%Mem=1900MB
#P OB98/GEN NMR

erre ene a

0 1
  C      589.825     171.680    -457.725
  O      589.620     172.821    -458.541
  P      590.229     172.803    -460.030
  C      588.376     174.242    -461.160
  O      589.730     174.150    -460.747
  C      588.036     175.679    -461.567
  O      587.897     176.478    -460.361
  C      589.091     176.366    -462.445
  O      588.384     177.263    -463.309
  C      589.906     177.158    -461.448
  O      590.624     178.231    -462.050
  C      588.822     177.584    -460.461
  N      592.059     180.528    -457.917
  C      591.844     180.420    -459.282
  N      592.554     181.258    -460.061
  N      591.013     179.564    -459.818
  C      590.357     178.811    -458.906
  C      590.513     178.793    -457.542
  C      591.404     179.763    -456.956
  O      591.563     179.950    -455.748
  N      589.739     177.817    -456.957
  C      589.067     177.300    -457.965
  N      589.373     177.900    -459.156
  O      589.385     171.653    -460.742
  O      591.704     172.578    -460.119
  H      591.269     177.846    -462.680
  H      589.847     170.794    -460.700
  H      592.696     181.216    -457.553
  H      588.344     176.497    -457.891
  H      588.268     178.470    -460.811
  H      590.635     176.497    -460.964
  H      593.188     181.955    -459.711
  H      589.690     175.664    -463.030
  H      592.398     181.219    -461.061
  H      587.058     175.675    -462.070
  H      587.725     173.957    -460.323
  H      588.196     173.552    -461.988
  P      589.107     177.709    -464.676
  C      587.156     177.421    -466.356
  O      587.983     178.320    -465.640
  O      589.462     176.304    -465.366
  O      590.341     178.536    -464.493
  H      590.278     176.392    -465.880
  H      586.227     177.943    -466.627
  H      586.902     176.547    -465.757
  H      587.665     177.107    -467.270
  H      589.367     171.837    -456.771
  H      590.875     171.519    -457.594
  H      589.388     170.823    -458.194

 3  4  5  6  7  8  9  10  11  12  23  26  30  31 0
 6-311+G(2d,p)
 ****
 33  35  36  37  38 0
 6-311+G(2d,p)
 ****
 1  2  13  14  15  16  17  18  19  20  21  22  24  25 0
 3-21G
 ****
 27  28  29  32  34  39  40  41  42  43  44  45  46  47  48  49 0
 3-21G
 ****


