%nproc=1
%NoSave
%Mem=1900MB
#P OB98/GEN NMR

erre ene a

0 1
  C      535.810    -284.175    -122.255
  O      535.442    -282.856    -122.652
  P      535.626    -281.657    -121.592
  C      537.725    -280.613    -120.505
  O      537.131    -281.113    -121.706
  C      539.044    -279.887    -120.814
  O      539.843    -280.711    -121.707
  C      538.884    -278.535    -121.529
  O      538.731    -277.361    -120.737
  C      540.237    -278.408    -122.234
  O      541.214    -277.883    -121.314
  C      540.594    -279.848    -122.596
  N      540.326    -283.679    -125.977
  C      540.647    -283.656    -124.662
  N      540.692    -282.590    -123.836
  C      540.355    -281.463    -124.484
  C      540.005    -281.337    -125.818
  C      540.001    -282.516    -126.585
  N      539.688    -282.543    -127.924
  N      539.729    -280.026    -126.129
  C      539.928    -279.365    -124.998
  N      540.292    -280.191    -123.976
  O      535.153    -281.940    -120.208
  O      534.786    -280.478    -122.260
  H      540.985    -276.942    -121.186
  H      534.339    -279.971    -121.561
  H      540.892    -284.613    -124.217
  H      539.826    -278.289    -124.886
  H      541.652    -280.066    -122.437
  H      540.201    -277.723    -123.083
  H      538.079    -278.584    -122.277
  H      539.605    -279.747    -119.879
  H      537.916    -281.446    -119.828
  H      539.752    -283.422    -128.406
  H      539.501    -281.674    -128.407
  H      536.992    -279.972    -120.024
  P      537.280    -276.844    -120.294
  C      535.592    -278.188    -118.810
  O      536.897    -277.689    -118.984
  O      536.242    -276.854    -121.369
  O      537.593    -275.390    -119.705
  H      538.107    -275.399    -118.870
  H      535.599    -278.907    -117.983
  H      535.251    -278.701    -119.720
  H      534.908    -277.370    -118.564
  H      535.630    -284.854    -123.062
  H      535.227    -284.468    -121.407
  H      536.849    -284.193    -121.998

 3  4  5  6  7  8  9  10  11  12  22  25  29  30  31  32 0
 6-311+G(2d,p)
 ****
 33  36  37 0
 6-311+G(2d,p)
 ****
 1  2  13  14  15  16  17  18  19  20  21  23  24  26 0
 3-21G
 ****
 27  28  34  35  38  39  40  41  42  43  44  45  46  47  48 0
 3-21G
 ****


