%nproc=1
%NoSave
%Mem=1900MB
#P OB98/GEN NMR

erre ene a

0 1
  C      -50.089     -61.536    -171.649
  O      -48.728     -61.738    -171.994
  P      -47.639     -61.601    -170.827
  C      -45.784     -61.874    -172.654
  O      -46.254     -61.154    -171.521
  C      -44.606     -61.126    -173.297
  O      -45.066     -59.888    -173.911
  C      -43.538     -60.704    -172.295
  O      -42.693     -61.802    -171.959
  C      -42.813     -59.594    -173.059
  O      -41.845     -60.142    -173.958
  C      -43.984     -58.937    -173.826
  N      -44.411     -57.673    -173.236
  C      -43.392     -56.742    -172.982
  O      -42.211     -56.967    -173.208
  N      -43.791     -55.559    -172.423
  C      -45.064     -55.240    -172.032
  O      -45.366     -54.187    -171.476
  C      -46.090     -56.280    -172.290
  C      -45.724     -57.426    -172.870
  O      -47.370     -63.120    -170.376
  O      -48.059     -60.742    -169.688
  H      -41.585     -59.422    -174.569
  H      -47.197     -63.150    -169.411
  H      -43.083     -54.873    -172.252
  H      -47.117     -56.044    -172.010
  H      -46.462     -58.197    -173.060
  H      -43.672     -58.732    -174.868
  H      -42.296     -58.917    -172.376
  H      -44.011     -60.289    -171.402
  H      -44.175     -61.759    -174.093
  H      -46.611     -61.964    -173.381
  H      -45.471     -62.880    -172.344
  P      -41.403     -61.468    -171.048
  C      -40.073     -62.862    -172.837
  O      -40.148     -61.686    -172.026
  O      -41.401     -62.747    -170.076
  O      -41.496     -60.160    -170.362
  H      -41.733     -63.558    -170.511
  H      -41.050     -63.172    -173.193
  H      -39.609     -63.662    -172.264
  H      -39.438     -62.626    -173.708
  H      -50.699     -61.658    -172.519
  H      -50.215     -60.547    -171.260
  H      -50.379     -62.251    -170.907

 3  4  5  6  7  8  9  10  11  12  13  23  28  29  30  31  32 0
 6-311+G(2d,p)
 ****
 33  34 0
 6-311+G(2d,p)
 ****
 1  2  14  15  16  17  18  19  20  21  22  24  25  26 0
 3-21G
 ****
 27  35  36  37  38  39  40  41  42  43  44  45 0
 3-21G
 ****


