%nproc=1
%NoSave
%Mem=1900MB
#P OB98/GEN NMR

erre ene a

0 1
  C      158.377    -315.502    -289.971
  O      158.783    -314.663    -288.909
  H      157.287    -315.609    -289.931
  H      158.829    -316.489    -289.866
  H      158.646    -315.064    -290.938
  P      160.323    -314.220    -288.817
  C      161.282    -315.655    -286.897
  O      160.777    -314.385    -287.285
  C      162.166    -315.532    -285.652
  O      163.460    -315.006    -286.052
  C      161.597    -314.598    -284.576
  O      161.896    -315.126    -283.284
  C      162.357    -313.306    -284.793
  O      162.440    -312.518    -283.605
  C      163.713    -313.814    -285.272
  N      167.332    -310.286    -285.208
  C      166.943    -311.175    -284.236
  N      167.598    -311.112    -283.055
  N      165.989    -312.059    -284.388
  C      165.433    -312.032    -285.632
  C      165.732    -311.193    -286.687
  C      166.777    -310.208    -286.485
  O      167.151    -309.382    -287.307
  N      164.933    -311.460    -287.769
  C      164.154    -312.453    -287.376
  N      164.407    -312.820    -286.080
  O      160.630    -312.882    -289.418
  O      161.118    -315.394    -289.556
  H      163.109    -312.947    -283.027
  H      161.420    -315.110    -290.444
  H      168.064    -309.620    -285.032
  H      163.398    -312.928    -287.978
  H      164.382    -314.078    -284.443
  H      161.862    -312.706    -285.566
  H      168.358    -310.470    -282.872
  H      160.519    -314.462    -284.682
  H      167.355    -311.777    -282.327
  H      162.338    -316.536    -285.247
  H      161.870    -316.064    -287.728
  H      160.438    -316.331    -286.694
  P      160.685    -315.530    -282.306
  C      161.575    -314.392    -280.184
  O      161.238    -315.624    -280.804
  O      159.856    -316.697    -282.754
  O      159.801    -314.185    -282.266
  H      158.852    -314.432    -282.200
  H      161.930    -314.577    -279.192
  H      160.709    -313.765    -280.142
  H      162.340    -313.905    -280.751

 6  7  8  9  10  11  12  13  14  15  26  29  33  34 0
 6-311+G(2d,p)
 ****
 36  38  39  40  41 0
 6-311+G(2d,p)
 ****
 1  2  3  4  5  16  17  18  19  20  21  22  23  24  25 0
 3-21G
 ****
 27  28  30  31  32  35  37  42  43  44  45  46  47 0
 3-21G
 ****
 48  49 0
 3-21G
 ****


