%nproc=1
%NoSave
%Mem=1900MB
#P OB98/GEN NMR

erre ene a

0 1
  C     -165.954     -84.000       3.877
  O     -165.705     -83.306       2.668
  H     -166.608     -83.390       4.505
  H     -165.013     -84.170       4.408
  H     -166.446     -84.955       3.675
  P     -164.959     -84.129       1.516
  C     -165.713     -86.016      -0.144
  O     -165.927     -85.341       1.089
  C     -166.168     -87.467      -0.033
  O     -165.554     -88.111       1.101
  C     -167.656     -87.639       0.220
  O     -168.438     -87.353      -0.920
  C     -167.706     -89.103       0.638
  O     -167.760     -89.976      -0.496
  C     -166.367     -89.272       1.397
  N     -166.574     -89.454       2.821
  C     -166.940     -90.750       3.212
  O     -167.044     -91.643       2.369
  N     -167.212     -90.985       4.535
  C     -167.154     -90.011       5.389
  N     -167.469     -90.305       6.679
  C     -166.776     -88.632       5.019
  C     -166.502     -88.426       3.730
  O     -163.788     -84.864       2.321
  O     -164.486     -83.307       0.365
  H     -167.775     -90.888      -0.141
  H     -164.090     -85.317       3.124
  H     -166.729     -87.858       5.770
  H     -166.217     -87.443       3.371
  H     -165.817     -90.143       1.017
  H     -168.587     -89.317       1.247
  H     -167.966     -87.029       1.078
  H     -165.855     -87.995      -0.944
  H     -167.776     -91.250       6.877
  H     -164.657     -85.969      -0.430
  H     -167.533     -89.614       7.411
  H     -166.289     -85.492      -0.914
  P     -169.927     -86.781      -0.787
  C     -170.971     -84.572       0.030
  O     -169.821     -85.411       0.051
  O     -170.938     -87.744      -0.262
  O     -170.241     -86.245      -2.263
  H     -169.636     -85.554      -2.586
  H     -170.785     -83.697       0.617
  H     -171.807     -85.103       0.435
  H     -171.185     -84.286      -0.978

 6  7  8  9  10  11  12  13  14  15  16  26  30  31  32  33  35 0
 6-311+G(2d,p)
 ****
 37  38 0
 6-311+G(2d,p)
 ****
 1  2  3  4  5  17  18  19  20  21  22  23  24  25 0
 3-21G
 ****
 27  28  29  34  36  39  40  41  42  43  44  45  46 0
 3-21G
 ****


