%nproc=1
%NoSave
%Mem=1900MB
#P OB98/GEN NMR

erre ene a

0 1
  C       36.693    -109.425     -90.348
  O       36.924    -110.725     -90.852
  H       36.647    -108.705     -91.170
  H       35.736    -109.418     -89.821
  H       37.484    -109.143     -89.648
  P       38.303    -110.953     -91.640
  C       37.170    -110.174     -93.840
  O       37.905    -111.190     -93.177
  C       35.920    -110.765     -94.483
  O       35.176    -109.734     -95.164
  C       36.188    -111.838     -95.532
  O       36.463    -113.098     -94.940
  C       34.860    -111.848     -96.274
  O       33.889    -112.599     -95.521
  C       34.485    -110.358     -96.278
  N       33.901    -110.261    -101.359
  C       33.334    -111.024    -100.401
  N       33.524    -110.978     -99.066
  C       34.392    -110.005     -98.746
  C       35.034    -109.131     -99.608
  C       34.765    -109.288    -100.977
  N       35.405    -108.543    -101.955
  N       35.866    -108.278     -98.909
  C       35.740    -108.644     -97.651
  N       34.857    -109.678     -97.502
  O       38.764    -112.404     -91.136
  O       39.353    -109.923     -91.395
  H       33.971    -112.311     -94.593
  H       39.410    -112.301     -90.414
  H       32.637    -111.778    -100.753
  H       36.269    -108.196     -96.822
  H       33.412    -110.202     -96.121
  H       34.925    -112.304     -97.265
  H       36.982    -111.535     -96.224
  H       35.282    -111.157     -93.680
  H       37.795    -109.720     -94.617
  H       35.496    -109.032    -102.841
  H       36.217    -108.034    -101.629
  H       36.896    -109.407     -93.111
  P       37.880    -113.779     -95.256
  C       37.237    -114.426     -97.676
  O       37.612    -114.888     -96.385
  O       38.165    -114.639     -93.936
  O       38.995    -112.830     -95.532
  H       39.025    -114.380     -93.553
  H       37.091    -115.263     -98.326
  H       38.011    -113.800     -98.069
  H       36.328    -113.867     -97.604

 6  7  8  9  10  11  12  13  14  15  25  28  32  33  34  35 0
 6-311+G(2d,p)
 ****
 36  39  40 0
 6-311+G(2d,p)
 ****
 1  2  3  4  5  16  17  18  19  20  21  22  23  24 0
 3-21G
 ****
 26  27  29  30  31  37  38  41  42  43  44  45  46  47  48 0
 3-21G
 ****


