%nproc=1
%NoSave
%Mem=1900MB
#P OB98/GEN NMR

erre ene a

0 1
  C     -241.833    -272.335    -273.761
  O     -240.959    -272.517    -272.636
  P     -241.063    -273.760    -271.625
  C     -242.553    -274.559    -269.673
  O     -242.293    -273.524    -270.618
  C     -244.043    -274.673    -269.345
  O     -244.537    -273.405    -268.795
  C     -244.946    -275.023    -270.548
  O     -245.949    -275.914    -270.062
  C     -245.524    -273.662    -270.918
  O     -246.689    -273.738    -271.717
  C     -245.751    -273.089    -269.515
  N     -246.022    -271.656    -269.464
  C     -247.337    -271.256    -269.180
  O     -248.239    -272.070    -269.047
  N     -247.605    -269.907    -269.081
  C     -246.649    -269.045    -269.258
  N     -246.987    -267.724    -269.135
  C     -245.263    -269.414    -269.566
  C     -245.024    -270.723    -269.653
  O     -239.780    -274.082    -270.935
  O     -241.545    -274.997    -272.529
  H     -241.112    -275.817    -272.200
  H     -247.336    -274.305    -271.249
  H     -244.502    -268.659    -269.689
  H     -244.016    -271.084    -269.849
  H     -246.567    -273.633    -269.025
  H     -244.767    -273.098    -271.476
  H     -244.398    -275.516    -271.360
  H     -244.161    -275.416    -268.552
  H     -247.952    -267.503    -268.904
  H     -242.000    -274.329    -268.748
  H     -246.325    -266.968    -269.236
  H     -242.171    -275.510    -270.067
  P     -246.112    -277.364    -270.725
  C     -246.675    -278.216    -273.126
  O     -246.762    -277.174    -272.181
  O     -247.350    -277.972    -269.894
  O     -244.935    -278.276    -270.626
  H     -247.296    -278.938    -269.899
  H     -247.648    -278.339    -273.613
  H     -246.388    -279.168    -272.667
  H     -245.926    -277.947    -273.890
  H     -241.565    -271.438    -274.279
  H     -242.844    -272.261    -273.419
  H     -241.741    -273.170    -274.423

 3  4  5  6  7  8  9  10  11  12  13  24  27  28  29  30  32 0
 6-311+G(2d,p)
 ****
 34  35 0
 6-311+G(2d,p)
 ****
 1  2  14  15  16  17  18  19  20  21  22  23  25  26 0
 3-21G
 ****
 31  33  36  37  38  39  40  41  42  43  44  45  46 0
 3-21G
 ****


