%nproc=1
%NoSave
%Mem=1900MB
#P OB98/GEN NMR

erre ene a

0 1
  C      623.506    -487.804     263.040
  O      623.041    -486.692     263.774
  H      623.495    -487.551     261.974
  H      622.847    -488.660     263.201
  H      624.526    -488.057     263.336
  P      623.136    -486.786     265.370
  C      622.670    -488.733     267.070
  O      622.378    -488.135     265.807
  C      621.450    -489.509     267.574
  O      620.925    -490.382     266.548
  C      621.749    -490.446     268.734
  O      622.006    -489.754     269.936
  C      620.475    -491.274     268.746
  O      619.407    -490.567     269.388
  C      620.197    -491.428     267.232
  N      620.554    -492.750     266.728
  C      619.589    -493.753     266.911
  O      618.511    -493.493     267.450
  N      619.883    -495.039     266.492
  C      621.021    -495.283     265.936
  N      621.261    -496.568     265.555
  C      622.053    -494.249     265.700
  C      621.761    -493.027     266.126
  O      622.127    -485.639     265.854
  O      624.512    -486.673     265.940
  H      619.667    -490.460     270.328
  H      621.234    -485.716     265.461
  H      622.993    -494.508     265.216
  H      622.463    -492.204     265.998
  H      619.127    -491.265     267.013
  H      620.604    -492.208     269.289
  H      622.578    -491.111     268.473
  H      620.668    -488.779     267.832
  H      620.536    -497.253     265.749
  H      622.981    -487.981     267.802
  H      622.124    -496.887     265.140
  H      623.515    -489.418     266.924
  P      623.327    -490.077     270.786
  C      624.599    -492.200     271.508
  O      623.506    -491.667     270.750
  O      623.356    -489.488     272.157
  O      624.511    -489.577     269.838
  H      624.557    -490.021     268.968
  H      624.617    -493.265     271.408
  H      624.478    -491.941     272.539
  H      625.518    -491.792     271.143

 6  7  8  9  10  11  12  13  14  15  16  26  30  31  32  33  35 0
 6-311+G(2d,p)
 ****
 37  38 0
 6-311+G(2d,p)
 ****
 1  2  3  4  5  17  18  19  20  21  22  23  24  25 0
 3-21G
 ****
 27  28  29  34  36  39  40  41  42  43  44  45  46 0
 3-21G
 ****


