%nproc=1
%NoSave
%Mem=1900MB
#P OB98/GEN NMR

erre ene a

0 1
  C     -170.909    -464.909    -147.265
  O     -171.750    -466.046    -147.306
  H     -170.322    -464.874    -148.187
  H     -170.226    -464.980    -146.414
  H     -171.506    -463.995    -147.189
  P     -172.821    -466.197    -146.127
  C     -173.965    -468.369    -147.070
  O     -173.208    -467.755    -146.031
  C     -173.110    -469.407    -147.794
  O     -172.169    -468.777    -148.689
  C     -172.232    -470.236    -146.872
  O     -172.969    -471.156    -146.098
  C     -171.302    -470.885    -147.887
  O     -171.938    -471.993    -148.535
  C     -171.081    -469.719    -148.883
  N     -169.781    -469.085    -148.717
  C     -168.725    -469.656    -149.439
  O     -168.924    -470.629    -150.164
  N     -167.465    -469.128    -149.293
  C     -167.279    -468.104    -148.520
  N     -166.008    -467.634    -148.410
  C     -168.368    -467.453    -147.763
  C     -169.578    -467.992    -147.901
  O     -174.138    -465.546    -146.764
  O     -172.413    -465.611    -144.814
  H     -172.801    -471.665    -148.858
  H     -174.383    -465.927    -147.624
  H     -168.169    -466.597    -147.135
  H     -170.433    -467.576    -147.381
  H     -171.152    -470.079    -149.918
  H     -170.390    -471.268    -147.422
  H     -171.629    -469.578    -146.231
  H     -173.781    -470.040    -148.390
  H     -165.282    -468.118    -148.927
  H     -174.342    -467.619    -147.772
  H     -165.739    -466.865    -147.814
  H     -174.832    -468.850    -146.603
  P     -172.328    -471.817    -144.785
  C     -174.555    -471.990    -143.504
  O     -173.489    -472.705    -144.115
  O     -171.666    -470.859    -143.851
  O     -171.345    -472.933    -145.380
  H     -171.783    -473.613    -145.920
  H     -175.261    -472.683    -143.096
  H     -175.039    -471.377    -144.235
  H     -174.168    -471.373    -142.721

 6  7  8  9  10  11  12  13  14  15  16  26  30  31  32  33  35 0
 6-311+G(2d,p)
 ****
 37  38 0
 6-311+G(2d,p)
 ****
 1  2  3  4  5  17  18  19  20  21  22  23  24  25 0
 3-21G
 ****
 27  28  29  34  36  39  40  41  42  43  44  45  46 0
 3-21G
 ****


