%nproc=1
%NoSave
%Mem=1900MB
#P OB98/GEN NMR

erre ene a

0 1
  C     -390.803    -498.552       3.592
  O     -391.530    -497.342       3.676
  H     -391.281    -499.197       2.848
  H     -390.800    -499.063       4.557
  H     -389.773    -498.351       3.277
  P     -390.992    -496.248       4.724
  C     -393.053    -496.167       6.301
  O     -392.299    -495.502       5.303
  C     -394.485    -496.397       5.820
  O     -395.083    -495.109       5.470
  C     -394.591    -497.301       4.578
  O     -395.759    -498.126       4.700
  C     -394.806    -496.313       3.446
  O     -395.442    -496.907       2.312
  C     -395.647    -495.250       4.149
  N     -398.061    -492.599       0.616
  C     -398.351    -493.837       1.152
  N     -399.443    -494.474       0.679
  N     -397.616    -494.413       2.083
  C     -396.570    -493.647       2.480
  C     -396.173    -492.410       2.022
  C     -396.974    -491.801       0.975
  O     -396.768    -490.714       0.442
  N     -395.036    -491.983       2.656
  C     -394.742    -492.956       3.507
  N     -395.648    -493.988       3.435
  O     -390.311    -495.142       3.784
  O     -390.051    -496.759       5.767
  H     -396.203    -497.428       2.630
  H     -389.575    -494.700       4.252
  H     -398.649    -492.212      -0.106
  H     -393.894    -492.977       4.173
  H     -396.698    -495.552       4.258
  H     -393.839    -495.899       3.119
  H     -400.062    -494.091      -0.006
  H     -393.715    -497.933       4.420
  H     -399.672    -495.388       1.067
  H     -395.084    -496.800       6.651
  H     -393.068    -495.557       7.210
  H     -392.585    -497.131       6.524
  P     -395.596    -499.537       5.447
  C     -396.134    -501.118       3.446
  O     -396.542    -500.617       4.722
  O     -396.327    -499.290       6.851
  O     -394.170    -499.958       5.647
  H     -395.669    -499.234       7.558
  H     -396.857    -501.822       3.091
  H     -395.183    -501.600       3.539
  H     -396.056    -500.307       2.753

 6  7  8  9  10  11  12  13  14  15  26  29  33  34 0
 6-311+G(2d,p)
 ****
 36  38  39  40  41 0
 6-311+G(2d,p)
 ****
 1  2  3  4  5  16  17  18  19  20  21  22  23  24  25 0
 3-21G
 ****
 27  28  30  31  32  35  37  42  43  44  45  46  47 0
 3-21G
 ****
 48  49 0
 3-21G
 ****


