%nproc=1
%NoSave
%Mem=1900MB
#P OB98/GEN NMR

erre ene a

0 1
  C     -255.038      95.235     -89.182
  O     -255.567      96.268     -89.989
  P     -257.148      96.511     -90.057
  C     -259.253      95.227     -90.778
  O     -257.833      95.204     -90.683
  C     -259.720      94.426     -91.990
  O     -258.899      93.250     -92.178
  C     -261.142      93.900     -91.874
  O     -262.104      94.927     -92.026
  C     -261.151      92.843     -92.970
  O     -261.355      93.443     -94.259
  C     -259.720      92.273     -92.865
  N     -259.684      90.983     -92.195
  C     -260.357      89.938     -92.838
  O     -261.002      90.149     -93.864
  N     -260.284      88.681     -92.291
  C     -259.704      88.508     -91.145
  N     -259.612      87.232     -90.684
  C     -259.124      89.616     -90.358
  C     -259.129      90.811     -90.949
  O     -257.567      97.799     -90.685
  O     -257.614      96.453     -88.525
  H     -258.163      97.238     -88.333
  H     -261.379      92.710     -94.905
  H     -258.713      89.430     -89.378
  H     -258.705      91.677     -90.455
  H     -259.280      92.166     -93.863
  H     -261.945      92.102     -92.830
  H     -261.276      93.414     -90.900
  H     -259.617      95.063     -92.879
  H     -260.005      86.495     -91.257
  H     -259.581      96.266     -90.873
  H     -258.920      86.951     -89.994
  H     -259.681      94.816     -89.857
  P     -263.462      94.779     -91.186
  C     -265.482      93.161     -91.176
  O     -264.275      93.545     -91.800
  O     -264.315      96.058     -91.634
  O     -263.276      94.744     -89.703
  H     -264.824      96.396     -90.874
  H     -266.071      92.571     -91.885
  H     -266.070      94.030     -90.868
  H     -265.261      92.542     -90.302
  H     -253.971      95.228     -89.265
  H     -255.427      94.293     -89.508
  H     -255.315      95.402     -88.162

 3  4  5  6  7  8  9  10  11  12  13  24  27  28  29  30  32 0
 6-311+G(2d,p)
 ****
 34  35 0
 6-311+G(2d,p)
 ****
 1  2  14  15  16  17  18  19  20  21  22  23  25  26 0
 3-21G
 ****
 31  33  36  37  38  39  40  41  42  43  44  45  46 0
 3-21G
 ****


