%nproc=1
%NoSave
%Mem=1900MB
#P OB98/GEN NMR

erre ene a

0 1
  C      419.171     325.123     197.802
  O      418.747     325.658     196.563
  H      419.916     324.348     197.610
  H      418.326     324.672     198.333
  H      419.626     325.902     198.417
  P      417.616     326.791     196.566
  C      418.855     328.777     195.472
  O      418.390     328.195     196.682
  C      418.398     330.234     195.377
  O      416.958     330.304     195.347
  C      418.846     331.111     196.543
  O      420.183     331.542     196.352
  C      417.844     332.247     196.435
  O      418.221     333.120     195.349
  C      416.547     331.494     196.074
  N      413.521     333.061     199.835
  C      414.274     333.796     198.942
  N      414.242     335.138     199.093
  N      415.002     333.262     197.997
  C      414.998     331.910     198.013
  C      414.306     331.075     198.855
  C      413.448     331.674     199.855
  O      412.746     331.055     200.648
  N      414.619     329.758     198.628
  C      415.458     329.796     197.612
  N      415.732     331.085     197.204
  O      416.515     326.619     197.571
  O      417.065     326.804     195.066
  H      417.516     333.793     195.270
  H      416.297     326.210     194.968
  H      412.983     333.526     200.549
  H      415.898     328.929     197.129
  H      415.900     332.080     195.411
  H      417.793     332.856     197.337
  H      413.823     335.595     199.888
  H      418.707     330.605     197.505
  H      414.836     335.688     198.483
  H      418.758     330.635     194.417
  H      418.443     328.191     194.643
  H      419.947     328.734     195.424
  P      421.186     331.737     197.597
  C      422.741     329.737     197.070
  O      421.741     330.269     197.924
  O      420.606     332.458     198.760
  O      422.469     332.447     196.962
  H      422.377     333.431     196.908
  H      423.014     328.759     197.406
  H      423.601     330.373     197.089
  H      422.362     329.678     196.071

 6  7  8  9  10  11  12  13  14  15  26  29  33  34 0
 6-311+G(2d,p)
 ****
 36  38  39  40  41 0
 6-311+G(2d,p)
 ****
 1  2  3  4  5  16  17  18  19  20  21  22  23  24  25 0
 3-21G
 ****
 27  28  30  31  32  35  37  42  43  44  45  46  47 0
 3-21G
 ****
 48  49 0
 3-21G
 ****


