%nproc=1
%NoSave
%Mem=1900MB
#P OB98/GEN NMR

erre ene a

0 1
  C      -18.723       7.042      -0.190
  O      -17.424       6.568      -0.465
  P      -16.255       7.562      -0.922
  C      -17.086       7.041      -3.304
  O      -16.616       8.046      -2.413
  C      -17.263       7.621      -4.713
  O      -18.462       8.456      -4.726
  C      -16.072       8.496      -5.153
  O      -15.512       8.138      -6.416
  C      -16.640       9.903      -5.065
  O      -15.939      10.856      -5.841
  C      -18.111       9.667      -5.422
  N      -18.966      10.792      -5.049
  C      -18.617      12.044      -5.544
  O      -17.655      12.260      -6.274
  N      -19.388      13.091      -5.120
  C      -20.374      13.031      -4.182
  O      -20.958      14.026      -3.776
  C      -20.671      11.687      -3.665
  C      -19.983      10.641      -4.129
  O      -14.869       7.032      -0.768
  O      -16.547       8.883      -0.065
  H      -16.328      11.732      -5.663
  H      -17.418       9.286      -0.218
  H      -19.146      14.005      -5.471
  H      -21.442      11.609      -2.912
  H      -20.181       9.638      -3.766
  H      -18.238       9.478      -6.489
  H      -16.567      10.228      -4.019
  H      -15.233       8.399      -4.454
  H      -17.414       6.785      -5.401
  H      -18.050       6.674      -2.945
  H      -16.392       6.194      -3.308
  P      -13.958       8.221      -6.789
  C      -14.236      10.525      -7.960
  O      -13.571       9.762      -6.975
  O      -13.521       7.322      -7.897
  O      -13.225       7.827      -5.421
  H      -12.367       7.408      -5.620
  H      -13.564      11.318      -8.300
  H      -15.124      10.985      -7.520
  H      -14.525       9.912      -8.818
  H      -19.348       6.223       0.097
  H      -19.125       7.508      -1.065
  H      -18.681       7.755       0.607

 3  4  5  6  7  8  9  10  11  12  13  23  28  29  30  31  32 0
 6-311+G(2d,p)
 ****
 33  34 0
 6-311+G(2d,p)
 ****
 1  2  14  15  16  17  18  19  20  21  22  24  25  26  27 0
 3-21G
 ****
 35  36  37  38  39  40  41  42  43  44  45 0
 3-21G
 ****


