%nproc=1
%NoSave
%Mem=1900MB
#P OB98/GEN NMR

erre ene a

0 1
  C      -61.944     -82.064     153.027
  O      -62.064     -83.394     152.513
  P      -61.070     -84.508     153.107
  C      -62.505     -86.090     154.616
  O      -61.968     -85.821     153.333
  C      -63.344     -87.373     154.598
  O      -64.437     -87.235     153.641
  C      -62.557     -88.638     154.229
  O      -63.088     -89.705     155.028
  C      -62.912     -88.846     152.768
  O      -62.711     -90.191     152.357
  C      -64.370     -88.377     152.762
  N      -64.854     -88.052     151.423
  C      -65.051     -89.115     150.549
  O      -64.762     -90.276     150.833
  N      -65.548     -88.792     149.315
  C      -65.786     -87.527     148.854
  O      -66.233     -87.294     147.738
  C      -65.451     -86.437     149.784
  C      -65.006     -86.746     151.004
  O      -60.808     -83.946     154.578
  O      -59.848     -84.702     152.273
  H      -61.590     -83.529     154.980
  H      -62.964     -90.278     151.415
  H      -65.728     -89.551     148.677
  H      -65.572     -85.420     149.434
  H      -64.731     -85.968     151.704
  H      -65.021     -89.152     153.186
  H      -62.294     -88.195     152.138
  H      -61.483     -88.539     154.410
  H      -63.796     -87.495     155.591
  H      -63.143     -85.258     154.933
  H      -61.688     -86.161     155.342
  P      -62.491     -89.918     156.509
  C      -64.451     -88.657     157.703
  O      -63.725     -89.853     157.526
  O      -61.773     -88.499     156.724
  O      -61.553     -91.069     156.654
  H      -62.333     -87.747     156.479
  H      -65.375     -88.880     158.241
  H      -64.711     -88.206     156.740
  H      -63.862     -87.948     158.292
  H      -62.661     -81.430     152.548
  H      -60.958     -81.695     152.836
  H      -62.124     -82.072     154.082

 3  4  5  6  7  8  9  10  11  12  13  24  28  29  30  31  32 0
 6-311+G(2d,p)
 ****
 33  34 0
 6-311+G(2d,p)
 ****
 1  2  14  15  16  17  18  19  20  21  22  23  25  26  27 0
 3-21G
 ****
 35  36  37  38  39  40  41  42  43  44  45 0
 3-21G
 ****


