%nproc=1
%NoSave
%Mem=1900MB
#P OB98/GEN NMR

erre ene a

0 1
  C      100.047      15.124      19.912
  O       99.839      16.427      20.427
  P       99.494      16.588      21.982
  C       96.915      16.676      21.663
  O       98.087      17.351      22.091
  C       95.674      17.308      22.296
  O       94.477      16.755      21.669
  C       95.551      17.065      23.807
  O       94.932      18.225      24.382
  C       94.592      15.892      23.874
  O       93.969      15.749      25.140
  C       93.639      16.257      22.730
  N       92.822      15.129      22.289
  C       91.841      14.670      23.162
  O       91.627      15.154      24.272
  N       91.135      13.575      22.743
  C       91.368      12.855      21.607
  O       90.777      11.814      21.347
  C       92.416      13.386      20.723
  C       93.083      14.481      21.097
  O      100.555      17.676      22.482
  O       99.573      15.326      22.772
  H       93.315      15.031      25.066
  H      101.299      17.241      22.937
  H       90.413      13.235      23.358
  H       92.612      12.852      19.803
  H       93.875      14.883      20.474
  H       92.984      17.083      23.035
  H       95.136      14.965      23.659
  H       96.507      16.861      24.298
  H       95.683      18.384      22.082
  H       96.976      15.629      21.961
  H       96.850      16.710      20.570
  P       95.733      19.013      25.530
  C       94.206      18.132      27.460
  O       94.706      19.236      26.737
  O       95.864      20.463      24.861
  O       97.047      18.393      25.878
  H       95.043      20.753      24.432
  H       94.952      17.337      27.547
  H       93.320      17.741      26.955
  H       93.925      18.463      28.462
  H      100.266      15.185      18.866
  H       99.164      14.538      20.058
  H      100.868      14.665      20.423

 3  4  5  6  7  8  9  10  11  12  13  23  28  29  30  31  32 0
 6-311+G(2d,p)
 ****
 33  34 0
 6-311+G(2d,p)
 ****
 1  2  14  15  16  17  18  19  20  21  22  24  25  26 0
 3-21G
 ****
 27  35  36  37  38  39  40  41  42  43  44  45 0
 3-21G
 ****


