%nproc=1
%NoSave
%Mem=1900MB
#P OB98/GEN NMR

erre ene a

0 1
  C       51.105    -121.015     -41.392
  O       51.382    -121.476     -42.712
  P       52.734    -122.197     -43.157
  C       53.639    -123.209     -45.400
  O       52.720    -122.345     -44.750
  C       52.972    -124.133     -46.434
  O       52.076    -125.050     -45.756
  C       52.111    -123.321     -47.403
  O       52.703    -122.689     -48.522
  C       50.951    -124.243     -47.752
  O       51.183    -124.985     -48.950
  C       50.877    -125.186     -46.548
  N       45.917    -126.155     -45.751
  C       46.728    -126.557     -46.793
  N       46.137    -127.267     -47.778
  N       48.000    -126.273     -46.871
  C       48.444    -125.484     -45.868
  C       47.733    -125.005     -44.791
  C       46.337    -125.374     -44.683
  O       45.576    -125.054     -43.775
  N       48.512    -124.215     -43.985
  C       49.684    -124.196     -44.585
  N       49.696    -124.958     -45.731
  O       53.109    -123.407     -42.370
  O       53.860    -121.072     -42.889
  H       50.374    -125.486     -49.155
  H       54.675    -121.549     -42.632
  H       44.948    -126.423     -45.728
  H       50.554    -123.654     -44.232
  H       50.834    -126.234     -46.868
  H       50.035    -123.663     -47.918
  H       45.142    -127.416     -47.836
  H       51.667    -122.501     -46.824
  H       46.672    -127.377     -48.641
  H       53.716    -124.757     -46.935
  H       54.126    -123.799     -44.619
  H       54.425    -122.625     -45.882
  P       53.048    -121.131     -48.659
  C       55.149    -119.850     -49.369
  O       54.340    -120.991     -49.591
  O       53.611    -120.732     -47.215
  O       51.895    -120.261     -49.038
  H       53.610    -119.763     -47.105
  H       55.797    -119.699     -50.236
  H       55.770    -120.007     -48.483
  H       54.532    -118.956     -49.227
  H       50.132    -120.571     -41.366
  H       51.836    -120.288     -41.107
  H       51.139    -121.840     -40.712

 3  4  5  6  7  8  9  10  11  12  23  26  30  31 0
 6-311+G(2d,p)
 ****
 33  35  36  37  38 0
 6-311+G(2d,p)
 ****
 1  2  13  14  15  16  17  18  19  20  21  22  24  25 0
 3-21G
 ****
 27  28  29  32  34  39  40  41  42  43  44  45  46  47  48  49 0
 3-21G
 ****


