%nproc=1
%NoSave
%Mem=1900MB
#P OB98/GEN NMR

erre ene a

0 1
  C     -116.509    -905.390    -899.303
  O     -115.094    -905.323    -899.523
  P     -114.220    -904.349    -898.583
  C     -112.138    -905.696    -897.873
  O     -113.434    -905.234    -897.513
  C     -111.690    -906.869    -896.953
  O     -111.525    -906.388    -895.593
  C     -112.693    -908.020    -896.943
  O     -112.091    -909.296    -897.173
  C     -113.393    -907.872    -895.583
  O     -113.951    -909.094    -895.103
  C     -112.294    -907.240    -894.703
  N     -112.868    -906.505    -893.573
  C     -112.686    -907.067    -892.313
  O     -112.154    -908.167    -892.133
  N     -113.231    -906.371    -891.263
  C     -113.942    -905.221    -891.343
  O     -114.408    -904.661    -890.363
  C     -114.156    -904.686    -892.703
  C     -113.610    -905.357    -893.733
  O     -114.921    -903.166    -898.043
  O     -113.024    -903.901    -899.583
  H     -114.264    -908.958    -894.183
  H     -112.843    -902.953    -899.403
  H     -113.069    -906.759    -890.343
  H     -114.751    -903.804    -892.813
  H     -113.768    -905.008    -894.753
  H     -111.636    -908.003    -894.303
  H     -114.202    -907.153    -895.703
  H     -113.445    -907.923    -897.733
  H     -110.706    -907.209    -897.303
  H     -111.417    -904.891    -897.793
  H     -112.136    -906.020    -898.923
  P     -111.086    -909.618    -898.373
  C     -109.401    -910.931    -896.923
  O     -109.621    -909.815    -897.763
  O     -111.154    -908.667    -899.553
  O     -111.524    -911.074    -898.863
  H     -111.474    -911.150    -899.813
  H     -108.506    -910.727    -896.293
  H     -109.201    -911.827    -897.503
  H     -110.250    -911.104    -896.233
  H     -116.946    -906.074    -900.000
  H     -116.938    -904.419    -899.439
  H     -116.699    -905.727    -898.305

 3  4  5  6  7  8  9  10  11  12  13  23  28  29  30  31  32 0
 6-311+G(2d,p)
 ****
 33  34 0
 6-311+G(2d,p)
 ****
 1  2  14  15  16  17  18  19  20  21  22  24  25  26  27 0
 3-21G
 ****
 35  36  37  38  39  40  41  42  43  44  45 0
 3-21G
 ****


