%nproc=1
%NoSave
%Mem=1900MB
#P OB98/GEN NMR

erre ene a

0 1
  C      -36.507       0.157     -14.559
  O      -37.587       0.207     -13.643
  P      -38.548      -1.060     -13.443
  C      -40.352       0.602     -14.211
  O      -40.045      -0.488     -13.350
  C      -41.488       1.443     -13.632
  O      -41.655       2.627     -14.448
  C      -42.827       0.715     -13.602
  O      -43.541       1.110     -12.428
  C      -43.572       1.247     -14.814
  O      -44.995       1.155     -14.632
  C      -43.020       2.673     -14.904
  N      -45.972       4.348     -18.755
  C      -46.276       3.926     -17.509
  N      -45.445       3.470     -16.547
  C      -44.169       3.531     -16.960
  C      -43.704       3.943     -18.200
  C      -44.671       4.364     -19.128
  N      -44.356       4.807     -20.394
  N      -42.329       3.835     -18.266
  C      -41.972       3.388     -17.083
  N      -43.046       3.198     -16.255
  O      -38.164      -1.973     -12.331
  O      -38.532      -1.804     -14.856
  H      -45.410       1.418     -15.480
  H      -38.539      -2.772     -14.731
  H      -47.331       3.953     -17.250
  H      -40.958       3.175     -16.779
  H      -43.573       3.362     -14.253
  H      -43.306       0.656     -15.697
  H      -42.720      -0.375     -13.626
  H      -41.202       1.774     -12.627
  H      -40.662       0.199     -15.180
  H      -45.101       5.204     -20.944
  H      -43.385       4.983     -20.609
  H      -39.455       1.213     -14.360
  P      -44.160      -0.088     -11.545
  C      -46.608       0.242     -12.365
  O      -45.686       0.333     -11.303
  O      -43.332      -0.379     -10.337
  O      -44.214      -1.271     -12.623
  H      -44.262      -0.922     -13.539
  H      -47.579       0.607     -12.018
  H      -46.722      -0.799     -12.679
  H      -46.282       0.854     -13.210
  H      -35.988       1.092     -14.549
  H      -36.882      -0.033     -15.543
  H      -35.836      -0.627     -14.276

 3  4  5  6  7  8  9  10  11  12  22  25  29  30  31  32 0
 6-311+G(2d,p)
 ****
 33  36  37 0
 6-311+G(2d,p)
 ****
 1  2  13  14  15  16  17  18  19  20  21  23  24  26 0
 3-21G
 ****
 27  28  34  35  38  39  40  41  42  43  44  45  46  47  48 0
 3-21G
 ****


