%nproc=1
%NoSave
%Mem=1900MB
#P OB98/GEN NMR

erre ene a

0 1
  C       14.636     -71.446      96.384
  O       13.809     -72.371      97.063
  H       14.024     -70.736      95.822
  H       15.227     -70.896      97.122
  H       15.316     -71.972      95.707
  P       12.877     -73.305      96.149
  C       10.667     -72.330      97.098
  O       11.496     -72.508      95.960
  C        9.388     -71.595      96.705
  O        9.710     -70.338      96.076
  C        8.505     -72.339      95.708
  O        7.720     -73.337      96.342
  C        7.643     -71.199      95.189
  O        6.600     -70.906      96.139
  C        8.647     -70.037      95.134
  N        8.788     -66.982      91.032
  C        8.163     -66.864      92.222
  N        8.189     -67.709      93.274
  C        8.978     -68.764      93.012
  C        9.698     -69.013      91.856
  C        9.579     -68.066      90.824
  N       10.170     -68.233      89.582
  N       10.382     -70.209      91.952
  C       10.064     -70.681      93.139
  N        9.225     -69.841      93.819
  O       12.494     -74.504      97.142
  O       13.514     -73.806      94.895
  H        6.155     -70.095      95.826
  H       13.090     -75.258      96.978
  H        7.555     -65.974      92.348
  H       10.412     -71.623      93.543
  H        8.197     -69.088      95.447
  H        7.156     -71.427      94.236
  H        9.092     -72.751      94.879
  H        8.833     -71.371      97.626
  H       11.202     -71.745      97.852
  H        9.662     -67.782      88.827
  H       10.514     -69.169      89.405
  H       10.427     -73.313      97.514
  P        7.336     -74.639      95.485
  C        5.176     -73.367      94.844
  O        6.262     -74.162      94.388
  O        6.467     -75.501      96.518
  O        8.489     -75.423      94.963
  H        6.858     -76.390      96.615
  H        4.542     -73.121      94.018
  H        5.553     -72.468      95.284
  H        4.615     -73.914      95.573

 6  7  8  9  10  11  12  13  14  15  25  28  32  33  34  35 0
 6-311+G(2d,p)
 ****
 36  39  40 0
 6-311+G(2d,p)
 ****
 1  2  3  4  5  16  17  18  19  20  21  22  23  24 0
 3-21G
 ****
 26  27  29  30  31  37  38  41  42  43  44  45  46  47  48 0
 3-21G
 ****


