%nproc=1
%NoSave
%Mem=1900MB
#P OB98/GEN NMR

erre ene a

0 1
  C      751.178     -48.598     133.638
  O      752.445     -48.088     133.277
  H      750.509     -47.762     133.846
  H      751.272     -49.203     134.542
  H      750.754     -49.199     132.830
  P      753.490     -49.119     132.634
  C      754.463     -50.074     134.837
  O      753.674     -50.322     133.685
  C      755.750     -50.902     134.789
  O      756.647     -50.424     135.830
  C      755.533     -52.402     135.010
  O      756.419     -53.124     134.151
  C      755.939     -52.608     136.458
  O      756.361     -53.949     136.723
  C      757.039     -51.566     136.612
  N      759.353     -52.867     140.900
  C      759.455     -53.406     139.635
  N      760.290     -54.458     139.481
  N      758.788     -52.960     138.598
  C      758.021     -51.880     138.886
  C      757.831     -51.257     140.101
  C      758.553     -51.782     141.238
  O      758.491     -51.361     142.388
  N      756.946     -50.216     139.991
  C      756.596     -50.212     138.718
  N      757.225     -51.193     138.008
  O      754.878     -48.329     132.722
  O      753.195     -49.542     131.235
  H      756.483     -54.031     137.688
  H      755.212     -48.146     131.821
  H      759.883     -53.264     141.661
  H      755.890     -49.528     138.264
  H      758.011     -51.924     136.244
  H      755.089     -52.386     137.116
  H      760.866     -54.823     140.222
  H      754.505     -52.717     134.822
  H      760.406     -54.848     138.552
  H      756.250     -50.708     133.830
  H      753.886     -50.352     135.731
  H      754.708     -49.007     134.889
  P      755.753     -53.936     132.934
  C      755.818     -56.275     134.045
  O      755.009     -55.227     133.541
  O      757.013     -54.557     132.170
  O      754.927     -53.093     132.023
  H      757.154     -54.090     131.331
  H      755.194     -57.062     134.414
  H      756.429     -55.903     134.840
  H      756.442     -56.652     133.262

 6  7  8  9  10  11  12  13  14  15  26  29  33  34 0
 6-311+G(2d,p)
 ****
 36  38  39  40  41 0
 6-311+G(2d,p)
 ****
 1  2  3  4  5  16  17  18  19  20  21  22  23  24  25 0
 3-21G
 ****
 27  28  30  31  32  35  37  42  43  44  45  46  47 0
 3-21G
 ****
 48  49 0
 3-21G
 ****


