%nproc=1
%NoSave
%Mem=1900MB
#P OB98/GEN NMR

erre ene a

0 1
  C       16.352     -53.309     -44.264
  O       15.542     -54.445     -44.512
  P       14.279     -54.252     -45.482
  C       11.859     -53.349     -45.174
  O       13.098     -53.690     -44.557
  C       10.707     -53.536     -44.192
  O       10.584     -54.923     -43.833
  C       10.885     -52.788     -42.881
  O       10.595     -51.414     -43.047
  C        9.901     -53.524     -41.979
  O        8.580     -52.973     -42.098
  C        9.950     -54.967     -42.534
  N       10.632     -55.887     -41.640
  C        9.847     -56.441     -40.621
  O        8.662     -56.123     -40.514
  N       10.437     -57.304     -39.731
  C       11.697     -57.584     -39.848
  N       12.227     -58.450     -38.941
  C       12.563     -57.007     -40.894
  C       11.973     -56.169     -41.745
  O       13.828     -55.753     -45.795
  O       14.559     -53.471     -46.724
  H        8.024     -53.484     -41.474
  H       13.367     -55.805     -46.654
  H       13.609     -57.273     -40.947
  H       12.535     -55.699     -42.543
  H        8.934     -55.345     -42.700
  H       10.183     -53.451     -40.924
  H       11.905     -52.918     -42.499
  H        9.779     -53.225     -44.689
  H       11.611     -58.824     -38.231
  H       11.695     -53.999     -46.038
  H       13.192     -58.748     -38.959
  H       11.911     -52.313     -45.521
  P       11.474     -50.362     -42.221
  C       12.559     -50.580     -39.907
  O       11.437     -50.891     -40.709
  O       10.502     -49.088     -42.154
  O       12.817     -50.015     -42.770
  H       10.971     -48.334     -41.753
  H       12.340     -50.857     -38.874
  H       12.775     -49.509     -39.948
  H       13.430     -51.148     -40.248
  H       17.152     -53.578     -43.606
  H       15.760     -52.541     -43.811
  H       16.755     -52.950     -45.188

 3  4  5  6  7  8  9  10  11  12  13  21  23  27  28  29  30  32 0
 6-311+G(2d,p)
 ****
 34  35 0
 6-311+G(2d,p)
 ****
 1  2  14  15  16  17  18  19  20  22  24  25  26 0
 3-21G
 ****
 31  33  36  37  38  39  40  41  42  43  44  45  46 0
 3-21G
 ****


