%nproc=1
%NoSave
%Mem=1900MB
#P OB98/GEN NMR

erre ene a

0 1
  C      314.797    -893.660     141.394
  O      313.906    -893.950     142.454
  H      314.358    -894.040     140.458
  H      315.746    -894.180     141.562
  H      314.961    -892.590     141.301
  P      314.142    -893.170     143.833
  C      311.766    -893.310     144.871
  O      312.732    -892.500     144.229
  C      310.459    -893.310     144.072
  O      310.701    -893.930     142.778
  C      309.307    -894.080     144.743
  O      308.072    -893.400     144.486
  C      309.288    -895.390     143.975
  O      308.026    -896.050     144.051
  C      309.676    -894.920     142.579
  N      308.043    -898.980     140.134
  C      307.336    -897.950     140.737
  N      305.984    -898.050     140.742
  N      307.899    -896.920     141.285
  C      309.257    -896.940     141.199
  C      310.072    -897.900     140.636
  C      309.424    -899.050     140.045
  O      309.994    -900.000     139.513
  N      311.402    -897.580     140.803
  C      311.392    -896.440     141.488
  N      310.116    -896.010     141.754
  O      315.045    -891.920     143.385
  O      314.796    -893.960     144.914
  H      307.917    -896.410     144.959
  H      315.990    -892.130     143.520
  H      307.548    -899.760     139.740
  H      312.265    -895.900     141.822
  H      308.830    -894.440     142.069
  H      310.049    -896.070     144.389
  H      305.467    -898.800     140.309
  H      309.431    -894.210     145.825
  H      305.462    -897.280     141.145
  H      310.164    -892.260     143.881
  H      311.564    -892.920     145.870
  H      312.151    -894.330     144.962
  P      307.538    -892.360     145.587
  C      307.118    -890.080     144.400
  O      308.008    -890.880     145.171
  O      308.455    -892.700     146.862
  O      306.083    -892.510     145.900
  H      307.934    -892.570     147.677
  H      307.570    -889.130     144.205
  H      306.207    -889.937     144.942
  H      306.908    -890.572     143.473

 6  7  8  9  10  11  12  13  14  15  26  29  33  34 0
 6-311+G(2d,p)
 ****
 36  38  39  40  41 0
 6-311+G(2d,p)
 ****
 1  2  3  4  5  16  17  18  19  20  21  22  23  24  25 0
 3-21G
 ****
 27  28  30  31  32  35  37  42  43  44  45  46  47 0
 3-21G
 ****
 48  49 0
 3-21G
 ****


