%nproc=1
%NoSave
%Mem=1900MB
#P OB98/GEN NMR

erre ene a

0 1
  C       43.235    -243.240     128.329
  O       44.361    -244.108     128.314
  P       44.153    -245.604     128.867
  C       45.368    -244.961     131.071
  O       44.189    -245.481     130.466
  C       45.161    -244.768     132.570
  O       44.278    -243.655     132.811
  C       44.527    -245.955     133.279
  O       45.475    -246.961     133.592
  C       44.016    -245.293     134.548
  O       45.101    -245.117     135.478
  C       43.538    -243.932     134.029
  N       39.001    -242.220     135.648
  C       40.234    -242.151     136.191
  N       41.392    -242.641     135.703
  C       41.183    -243.293     134.546
  C       39.976    -243.478     133.893
  C       38.843    -242.896     134.484
  N       37.591    -242.943     133.914
  N       40.158    -244.202     132.734
  C       41.450    -244.440     132.682
  N       42.115    -243.903     133.750
  O       45.546    -246.311     128.519
  O       42.990    -246.333     128.288
  H       45.862    -244.784     134.965
  H       45.424    -247.278     128.466
  H       40.302    -241.622     137.138
  H       41.948    -244.986     131.892
  H       43.753    -243.120     134.731
  H       43.252    -245.887     135.058
  H       43.680    -246.355     132.707
  H       46.135    -244.528     133.016
  H       45.607    -243.996     130.616
  H       36.874    -242.350     134.301
  H       37.516    -243.270     132.957
  H       46.199    -245.650     130.886
  P       45.074    -248.473     133.228
  C       44.280    -249.233     135.582
  O       43.918    -248.866     134.264
  O       46.342    -249.313     133.721
  O       44.772    -248.692     131.784
  H       46.414    -250.148     133.221
  H       43.397    -249.164     136.221
  H       45.051    -248.567     135.980
  H       44.643    -250.265     135.594
  H       43.516    -242.285     127.936
  H       42.887    -243.124     129.334
  H       42.455    -243.658     127.728

 3  4  5  6  7  8  9  10  11  12  22  25  29  30  31  32 0
 6-311+G(2d,p)
 ****
 33  36  37 0
 6-311+G(2d,p)
 ****
 1  2  13  14  15  16  17  18  19  20  21  23  24  26 0
 3-21G
 ****
 27  28  34  35  38  39  40  41  42  43  44  45  46  47  48 0
 3-21G
 ****


