%nproc=1
%NoSave
%Mem=1900MB
#P OB98/GEN NMR

erre ene a

0 1
  C     -352.834    -319.468     260.412
  O     -353.471    -320.183     261.476
  P     -354.603    -319.396     262.295
  C     -353.919    -319.808     264.770
  O     -354.805    -320.134     263.705
  C     -354.053    -320.830     265.898
  O     -353.194    -321.971     265.691
  C     -353.670    -320.276     267.263
  O     -354.679    -319.421     267.775
  C     -353.472    -321.570     268.049
  O     -354.744    -322.105     268.463
  C     -352.840    -322.493     266.995
  N     -348.850    -325.682     267.252
  C     -350.179    -325.906     267.155
  N     -351.177    -325.001     267.092
  C     -350.690    -323.751     267.134
  C     -349.361    -323.370     267.227
  C     -348.413    -324.405     267.292
  N     -347.060    -324.179     267.408
  N     -349.249    -321.996     267.239
  C     -350.491    -321.556     267.181
  N     -351.394    -322.578     267.102
  O     -355.944    -319.735     261.492
  O     -354.366    -317.922     262.382
  H     -354.579    -323.000     268.827
  H     -356.251    -318.944     261.009
  H     -350.479    -326.950     267.124
  H     -350.781    -320.511     267.191
  H     -353.228    -323.515     267.053
  H     -352.864    -321.436     268.951
  H     -352.719    -319.733     267.197
  H     -355.096    -321.177     265.920
  H     -354.138    -318.805     265.149
  H     -346.454    -324.975     267.531
  H     -346.729    -323.231     267.530
  H     -352.896    -319.785     264.377
  P     -354.231    -317.990     268.340
  C     -355.954    -318.299     270.220
  O     -355.525    -317.480     269.147
  O     -354.268    -317.095     267.019
  O     -352.946    -317.987     269.098
  H     -355.075    -317.253     266.496
  H     -356.812    -317.822     270.701
  H     -355.153    -318.409     270.953
  H     -356.256    -319.280     269.847
  H     -352.104    -320.097     259.947
  H     -352.355    -318.596     260.805
  H     -353.567    -319.177     259.689

 3  4  5  6  7  8  9  10  11  12  22  25  29  30  31  32 0
 6-311+G(2d,p)
 ****
 33  36  37 0
 6-311+G(2d,p)
 ****
 1  2  13  14  15  16  17  18  19  20  21  23  24  26 0
 3-21G
 ****
 27  28  34  35  38  39  40  41  42  43  44  45  46  47  48 0
 3-21G
 ****


