%nproc=1
%NoSave
%Mem=1900MB
#P OB98/GEN NMR

erre ene a

0 1
  C     -390.302     140.974    -113.591
  O     -390.202     142.368    -113.926
  P     -389.087     142.956    -114.921
  C     -388.456     145.171    -113.762
  O     -389.115     144.561    -114.863
  C     -388.748     146.678    -113.689
  O     -388.147     147.357    -114.841
  C     -390.241     147.037    -113.671
  O     -390.390     148.144    -112.773
  C     -390.485     147.456    -115.113
  O     -391.659     148.229    -115.294
  C     -389.174     148.218    -115.388
  N     -388.902     148.507    -116.792
  C     -388.716     149.853    -117.147
  O     -388.827     150.755    -116.326
  N     -388.406     150.141    -118.461
  C     -388.314     149.190    -119.332
  N     -387.997     149.550    -120.605
  C     -388.522     147.771    -119.006
  C     -388.812     147.502    -117.733
  O     -389.184     142.415    -116.312
  O     -387.677     142.568    -114.270
  H     -387.042     142.371    -114.974
  H     -391.656     148.565    -116.211
  H     -388.431     147.008    -119.760
  H     -388.955     146.479    -117.399
  H     -389.165     149.144    -114.806
  H     -390.572     146.556    -115.734
  H     -390.891     146.222    -113.337
  H     -388.250     147.073    -112.799
  H     -387.848     150.538    -120.794
  H     -387.375     145.024    -113.874
  H     -387.890     148.898    -121.363
  H     -388.774     144.674    -112.837
  P     -390.457     147.877    -111.189
  C     -392.841     148.823    -110.761
  O     -391.452     148.959    -110.556
  O     -389.026     148.421    -110.705
  O     -390.636     146.454    -110.766
  H     -388.775     147.968    -109.876
  H     -393.362     149.005    -109.819
  H     -393.118     147.832    -111.118
  H     -393.174     149.570    -111.493
  H     -391.118     140.827    -112.915
  H     -389.393     140.652    -113.128
  H     -390.470     140.404    -114.481

 3  4  5  6  7  8  9  10  11  12  13  24  27  28  29  30  32 0
 6-311+G(2d,p)
 ****
 34  35 0
 6-311+G(2d,p)
 ****
 1  2  14  15  16  17  18  19  20  21  22  23  25  26 0
 3-21G
 ****
 31  33  36  37  38  39  40  41  42  43  44  45  46 0
 3-21G
 ****


