%nproc=1
%NoSave
%Mem=1900MB
#P OB98/GEN NMR

erre ene a

0 1
  C       40.792    -257.102    -430.972
  O       40.346    -258.111    -431.863
  P       41.201    -259.451    -432.091
  C       39.066    -260.869    -432.423
  O       40.272    -260.387    -433.002
  C       38.441    -261.924    -433.331
  O       39.479    -262.740    -433.912
  C       37.501    -262.890    -432.624
  O       36.245    -262.279    -432.357
  C       37.471    -264.045    -433.617
  O       36.578    -263.748    -434.703
  C       38.927    -264.061    -434.128
  N       39.742    -265.084    -433.482
  C       40.637    -265.778    -434.302
  O       40.728    -265.522    -435.501
  N       41.443    -266.733    -433.734
  C       41.349    -266.991    -432.466
  N       42.221    -267.899    -431.946
  C       40.381    -266.323    -431.577
  C       39.622    -265.387    -432.143
  O       41.700    -260.098    -430.843
  O       42.356    -259.022    -433.102
  H       36.883    -262.907    -435.096
  H       43.167    -258.674    -432.654
  H       40.329    -266.578    -430.529
  H       38.901    -264.835    -431.557
  H       38.946    -264.226    -435.210
  H       37.154    -264.994    -433.175
  H       37.940    -263.230    -431.678
  H       37.916    -261.407    -434.147
  H       42.976    -268.198    -432.549
  H       38.371    -260.031    -432.316
  H       42.405    -267.940    -430.952
  H       39.281    -261.281    -431.432
  P       35.538    -262.620    -430.961
  C       34.568    -260.228    -430.718
  O       34.294    -261.609    -430.843
  O       36.588    -262.087    -429.877
  O       35.211    -264.063    -430.770
  H       37.101    -262.830    -429.508
  H       33.643    -259.673    -430.887
  H       35.312    -259.909    -431.456
  H       34.929    -260.008    -429.708
  H       40.086    -256.298    -430.962
  H       41.745    -256.737    -431.295
  H       40.881    -257.510    -429.987

 3  4  5  6  7  8  9  10  11  12  13  23  27  28  29  30  32 0
 6-311+G(2d,p)
 ****
 34  35 0
 6-311+G(2d,p)
 ****
 1  2  14  15  16  17  18  19  20  21  22  24  25  26 0
 3-21G
 ****
 31  33  36  37  38  39  40  41  42  43  44  45  46 0
 3-21G
 ****


