%nproc=1
%NoSave
%Mem=1900MB
#P OB98/GEN NMR

erre ene a

0 1
  C     -327.729    -349.391    -781.387
  O     -326.586    -348.691    -781.873
  P     -325.670    -349.329    -783.033
  C     -326.753    -347.785    -784.762
  O     -326.402    -349.130    -784.453
  C     -327.628    -347.657    -786.031
  O     -326.868    -347.975    -787.215
  C     -328.878    -348.556    -786.038
  O     -329.881    -347.812    -786.734
  C     -328.427    -349.743    -786.837
  O     -329.504    -350.517    -787.339
  C     -327.544    -349.066    -787.888
  N     -326.583    -349.993    -788.494
  C     -326.903    -350.499    -789.748
  O     -327.980    -350.209    -790.282
  N     -326.025    -351.370    -790.363
  C     -324.966    -351.760    -789.728
  N     -324.144    -352.635    -790.370
  C     -324.636    -351.315    -788.353
  C     -325.475    -350.444    -787.815
  O     -325.206    -350.723    -782.769
  O     -324.420    -348.328    -783.125
  H     -330.114    -349.929    -787.822
  H     -323.628    -348.833    -783.406
  H     -323.752    -351.690    -787.852
  H     -325.301    -350.045    -786.816
  H     -328.157    -348.639    -788.683
  H     -327.813    -350.403    -786.192
  H     -329.234    -348.819    -785.021
  H     -327.921    -346.608    -786.097
  H     -324.432    -352.937    -791.294
  H     -325.832    -347.209    -784.903
  H     -323.372    -353.092    -789.926
  H     -327.279    -347.347    -783.910
  P     -331.416    -347.774    -786.259
  C     -330.846    -345.538    -785.150
  O     -331.480    -346.787    -784.998
  O     -332.044    -349.112    -786.045
  O     -332.185    -346.956    -787.395
  H     -333.141    -347.123    -787.350
  H     -331.139    -344.882    -784.329
  H     -331.117    -345.062    -786.097
  H     -329.753    -345.683    -785.125
  H     -328.205    -348.811    -780.624
  H     -327.424    -350.333    -780.981
  H     -328.416    -349.555    -782.191

 3  4  5  6  7  8  9  10  11  12  13  23  27  28  29  30  32 0
 6-311+G(2d,p)
 ****
 34  35 0
 6-311+G(2d,p)
 ****
 1  2  14  15  16  17  18  19  20  21  22  24  25  26 0
 3-21G
 ****
 31  33  36  37  38  39  40  41  42  43  44  45  46 0
 3-21G
 ****


