%nproc=1
%NoSave
%Mem=1900MB
#P OB98/GEN NMR

erre ene a

0 1
  C      126.373     471.064     510.547
  O      127.198     471.272     509.392
  P      126.880     470.588     507.981
  C      128.494     468.638     508.475
  O      127.173     469.010     508.093
  C      128.603     467.136     508.756
  O      127.809     466.769     509.906
  C      128.119     466.243     507.610
  O      129.100     466.162     506.598
  C      127.839     464.938     508.349
  O      129.058     464.205     508.552
  C      127.288     465.445     509.694
  N      123.092     462.544     510.072
  C      124.412     462.231     510.091
  N      125.473     463.062     509.973
  C      125.058     464.341     509.863
  C      123.760     464.807     509.832
  C      122.740     463.840     509.944
  N      121.398     464.151     509.915
  N      123.722     466.176     509.684
  C      124.998     466.530     509.641
  N      125.836     465.458     509.748
  O      127.542     471.242     506.817
  O      125.286     470.659     507.843
  H      129.385     463.930     507.675
  H      125.042     470.687     506.896
  H      124.647     461.175     510.204
  H      125.349     467.551     509.538
  H      127.642     464.831     510.532
  H      127.148     464.283     507.805
  H      127.180     466.641     507.200
  H      129.648     466.912     508.987
  H      128.761     469.196     509.382
  H      120.731     463.399     509.968
  H      121.123     465.115     509.768
  H      129.181     468.918     507.673
  P      128.707     466.451     505.070
  C      127.813     464.049     505.026
  O      127.570     465.392     504.665
  O      129.852     466.547     504.118
  O      127.894     467.827     505.148
  H      128.011     468.320     504.310
  H      128.497     463.592     504.306
  H      126.865     463.505     505.012
  H      128.240     463.980     506.029
  H      126.771     471.615     511.374
  H      126.354     470.022     510.789
  H      125.379     471.400     510.340

 3  4  5  6  7  8  9  10  11  12  22  25  29  30  31  32 0
 6-311+G(2d,p)
 ****
 33  36  37 0
 6-311+G(2d,p)
 ****
 1  2  13  14  15  16  17  18  19  20  21  23  24  26 0
 3-21G
 ****
 27  28  34  35  38  39  40  41  42  43  44  45  46  47  48 0
 3-21G
 ****


