%nproc=1
%NoSave
%Mem=1900MB
#P OB98/GEN NMR

erre ene a

0 1
  C     -234.514     180.008     129.120
  O     -235.820     180.513     128.896
  P     -236.891     180.352     130.082
  C     -237.962     178.292     128.914
  O     -237.338     178.809     130.083
  C     -239.369     177.775     129.218
  O     -240.013     177.402     127.975
  C     -239.402     176.562     130.150
  O     -240.545     176.692     131.000
  C     -239.620     175.396     129.207
  O     -240.218     174.285     129.871
  C     -240.489     176.048     128.120
  N     -240.429     175.322     126.855
  C     -241.497     174.464     126.567
  O     -242.390     174.289     127.399
  N     -241.500     173.789     125.372
  C     -240.475     173.877     124.583
  N     -240.528     173.191     123.410
  C     -239.275     174.673     124.906
  C     -239.329     175.378     126.034
  O     -238.178     181.108     129.506
  O     -236.449     180.903     131.399
  H     -239.593     173.968     130.562
  H     -238.690     181.521     130.227
  H     -238.430     174.684     124.230
  H     -238.503     176.008     126.341
  H     -241.539     176.100     128.443
  H     -238.660     175.070     128.786
  H     -238.497     176.473     130.761
  H     -239.951     178.600     129.650
  H     -241.354     172.643     123.217
  H     -237.367     177.458     128.532
  H     -239.775     173.198     122.733
  H     -237.993     179.071     128.144
  P     -240.311     177.276     132.476
  C     -241.282     175.178     133.595
  O     -240.134     175.984     133.410
  O     -241.794     177.751     132.866
  O     -239.325     178.383     132.653
  H     -241.778     178.193     133.736
  H     -240.990     174.271     134.131
  H     -241.712     174.897     132.631
  H     -242.023     175.717     134.194
  H     -233.911     180.182     128.254
  H     -234.566     178.957     129.313
  H     -234.079     180.504     129.963

 3  4  5  6  7  8  9  10  11  12  13  21  23  27  28  29  30  32 0
 6-311+G(2d,p)
 ****
 34  35 0
 6-311+G(2d,p)
 ****
 1  2  14  15  16  17  18  19  20  22  24  25  26 0
 3-21G
 ****
 31  33  36  37  38  39  40  41  42  43  44  45  46 0
 3-21G
 ****


