%nproc=1
%NoSave
%Mem=1900MB
#P OB98/GEN NMR

erre ene a

0 1
  C       83.071     102.401      77.148
  O       83.218     103.705      77.682
  P       82.336     104.082      78.971
  C       80.662     105.296      77.400
  O       80.844     104.342      78.440
  C       79.891     106.520      77.897
  O       79.943     107.552      76.882
  C       78.421     106.244      78.217
  O       78.067     107.027      79.358
  C       77.688     106.784      77.004
  O       76.340     107.132      77.314
  C       78.588     107.966      76.610
  N       78.417     108.349      75.213
  C       77.412     109.280      74.933
  O       76.673     109.678      75.832
  N       77.240     109.696      73.636
  C       77.934     109.149      72.688
  N       77.728     109.598      71.421
  C       78.917     108.074      72.927
  C       79.120     107.742      74.200
  O       82.856     105.547      79.344
  O       82.464     103.127      80.112
  H       75.956     107.589      76.533
  H       82.813     105.696      80.308
  H       79.443     107.625      72.097
  H       79.839     106.980      74.472
  H       78.376     108.840      77.240
  H       77.676     106.029      76.208
  H       78.220     105.188      78.417
  H       80.405     106.910      78.784
  H       77.039     110.325      71.282
  H       80.086     104.835      76.592
  H       78.223     109.230      70.620
  H       81.637     105.588      77.000
  P       76.998     106.410      80.382
  C       75.338     108.177      79.541
  O       75.568     106.802      79.774
  O       77.112     107.431      81.615
  O       77.180     104.999      80.832
  H       76.546     107.125      82.346
  H       74.392     108.289      79.005
  H       76.140     108.603      78.933
  H       75.265     108.710      80.494
  H       83.713     102.289      76.299
  H       82.055     102.250      76.849
  H       83.335     101.679      77.892

 3  4  5  6  7  8  9  10  11  12  13  21  23  27  28  29  30  32 0
 6-311+G(2d,p)
 ****
 34  35 0
 6-311+G(2d,p)
 ****
 1  2  14  15  16  17  18  19  20  22  24  25  26 0
 3-21G
 ****
 31  33  36  37  38  39  40  41  42  43  44  45  46 0
 3-21G
 ****


