%nproc=1
%NoSave
%Mem=1900MB
#P OB98/GEN NMR

erre ene a

0 1
  C      -79.894     -50.381     -38.462
  O      -78.931     -50.647     -37.467
  H      -79.383     -50.015     -39.355
  H      -80.585     -49.609     -38.110
  H      -80.455     -51.282     -38.723
  P      -79.355     -51.522     -36.196
  C      -77.703     -53.490     -36.420
  O      -78.049     -52.314     -35.707
  C      -76.183     -53.695     -36.445
  O      -75.555     -52.577     -37.118
  C      -75.625     -53.726     -35.020
  O      -74.444     -54.517     -34.922
  C      -75.271     -52.269     -34.764
  O      -74.306     -52.103     -33.730
  C      -74.787     -51.840     -36.148
  N      -72.649     -47.229     -35.807
  C      -72.205     -48.437     -35.306
  N      -71.051     -48.409     -34.604
  N      -72.845     -49.566     -35.467
  C      -74.021     -49.431     -36.124
  C      -74.579     -48.286     -36.645
  C      -73.842     -47.049     -36.496
  O      -74.196     -45.946     -36.902
  N      -75.795     -48.539     -37.228
  C      -75.977     -49.832     -37.055
  N      -74.922     -50.421     -36.402
  O      -80.255     -52.691     -36.822
  O      -80.089     -50.785     -35.117
  H      -74.053     -51.160     -33.714
  H      -80.870     -53.041     -36.154
  H      -72.111     -46.392     -35.668
  H      -76.846     -50.388     -37.385
  H      -73.730     -52.102     -36.286
  H      -76.178     -51.746     -34.448
  H      -70.622     -47.546     -34.308
  H      -76.358     -54.092     -34.300
  H      -70.869     -49.209     -33.993
  H      -75.931     -54.594     -37.017
  H      -78.080     -53.373     -37.442
  H      -78.200     -54.359     -35.983
  P      -74.625     -56.093     -34.694
  C      -72.346     -56.790     -35.789
  O      -73.164     -56.750     -34.635
  O      -75.232     -56.605     -36.081
  O      -75.501     -56.435     -33.536
  H      -76.182     -56.802     -35.981
  H      -71.416     -57.263     -35.551
  H      -72.161     -55.793     -36.130
  H      -72.842     -57.344     -36.559

 6  7  8  9  10  11  12  13  14  15  26  29  33  34 0
 6-311+G(2d,p)
 ****
 36  38  39  40  41 0
 6-311+G(2d,p)
 ****
 1  2  3  4  5  16  17  18  19  20  21  22  23  24  25 0
 3-21G
 ****
 27  28  30  31  32  35  37  42  43  44  45  46  47 0
 3-21G
 ****
 48  49 0
 3-21G
 ****


