%nproc=1
%NoSave
%Mem=1900MB
#P OB98/GEN NMR

erre ene a

0 1
  C      220.073    -208.532     317.890
  O      219.928    -209.070     319.192
  P      218.856    -208.371     320.170
  C      220.687    -207.572     321.834
  O      219.629    -207.199     320.956
  C      220.565    -206.840     323.171
  O      221.723    -207.165     323.991
  C      220.497    -205.304     323.064
  O      219.634    -204.855     324.110
  C      221.937    -204.907     323.323
  O      222.113    -203.539     323.664
  C      222.305    -205.914     324.411
  N      226.295    -204.684     327.376
  C      224.964    -204.448     327.510
  N      223.964    -204.817     326.681
  C      224.444    -205.500     325.628
  C      225.765    -205.797     325.351
  C      226.717    -205.355     326.286
  N      228.077    -205.584     326.137
  N      225.877    -206.492     324.165
  C      224.639    -206.613     323.731
  N      223.737    -206.045     324.594
  O      218.620    -209.483     321.298
  O      217.573    -207.959     319.511
  H      221.437    -203.270     324.321
  H      217.684    -209.513     321.571
  H      224.668    -203.894     328.392
  H      224.351    -207.081     322.801
  H      221.871    -205.647     325.380
  H      222.530    -205.086     322.418
  H      220.107    -204.953     322.101
  H      219.680    -207.217     323.694
  H      221.640    -207.289     321.374
  H      228.681    -205.057     326.751
  H      228.392    -205.900     325.234
  H      220.680    -208.654     321.971
  P      219.533    -203.280     324.413
  C      219.189    -203.804     326.911
  O      219.991    -203.158     325.953
  O      217.949    -203.094     324.543
  O      220.187    -202.380     323.428
  H      217.557    -203.749     325.154
  H      219.663    -203.726     327.889
  H      219.068    -204.866     326.659
  H      218.203    -203.322     326.956
  H      220.813    -209.089     317.354
  H      220.378    -207.509     317.959
  H      219.138    -208.591     317.373

 3  4  5  6  7  8  9  10  11  12  22  25  29  30  31  32 0
 6-311+G(2d,p)
 ****
 33  36  37 0
 6-311+G(2d,p)
 ****
 1  2  13  14  15  16  17  18  19  20  21  23  24  26 0
 3-21G
 ****
 27  28  34  35  38  39  40  41  42  43  44  45  46  47  48 0
 3-21G
 ****


