%nproc=1
%NoSave
%Mem=1900MB
#P OB98/GEN NMR

erre ene a

0 1
  C     -148.632      29.193    -141.164
  O     -147.972      28.136    -141.841
  P     -148.286      26.635    -141.364
  C     -148.043      25.301    -139.149
  O     -147.771      26.507    -139.849
  C     -148.235      25.570    -137.655
  O     -149.381      26.450    -137.479
  C     -148.487      24.313    -136.807
  O     -147.866      24.541    -135.536
  C     -150.001      24.310    -136.686
  O     -150.495      23.486    -135.646
  C     -150.266      25.805    -136.535
  N     -155.078      25.397    -134.861
  C     -153.904      24.983    -134.332
  N     -152.659      25.135    -134.834
  C     -152.696      25.802    -135.999
  C     -153.816      26.269    -136.668
  C     -155.056      26.043    -136.049
  N     -156.253      26.459    -136.593
  N     -153.462      26.880    -137.852
  C     -152.149      26.784    -137.901
  N     -151.641      26.161    -136.795
  O     -147.226      25.766    -142.188
  O     -149.693      26.179    -141.602
  H     -151.473      23.522    -135.626
  H     -147.618      24.924    -142.488
  H     -153.972      24.461    -133.384
  H     -151.526      27.135    -138.712
  H     -150.008      26.167    -135.532
  H     -150.430      23.934    -137.623
  H     -148.073      23.402    -137.249
  H     -147.352      26.107    -137.284
  H     -147.200      24.613    -139.267
  H     -157.092      26.077    -136.178
  H     -156.243      26.750    -137.563
  H     -148.931      24.824    -139.578
  P     -146.974      23.375    -134.889
  C     -147.531      21.065    -133.909
  O     -148.050      22.272    -134.433
  O     -146.578      24.039    -133.486
  O     -145.819      22.908    -135.705
  H     -147.361      24.383    -133.019
  H     -148.363      20.454    -133.550
  H     -146.859      21.274    -133.070
  H     -147.000      20.517    -134.690
  H     -148.330      30.129    -141.584
  H     -148.374      29.168    -140.126
  H     -149.691      29.079    -141.271

 3  4  5  6  7  8  9  10  11  12  22  25  29  30  31  32 0
 6-311+G(2d,p)
 ****
 33  36  37 0
 6-311+G(2d,p)
 ****
 1  2  13  14  15  16  17  18  19  20  21  23  24  26 0
 3-21G
 ****
 27  28  34  35  38  39  40  41  42  43  44  45  46  47  48 0
 3-21G
 ****


