%nproc=1
%NoSave
%Mem=1900MB
#P OB98/GEN NMR

erre ene a

0 1
  C     -315.429    -451.255      59.960
  O     -316.216    -450.617      60.946
  H     -316.080    -451.901      59.361
  H     -314.668    -451.876      60.437
  H     -314.959    -450.520      59.301
  P     -315.540    -449.504      61.880
  C     -316.272    -450.585      64.111
  O     -315.181    -450.209      63.281
  C     -316.056    -450.098      65.548
  O     -314.841    -450.706      66.062
  C     -315.912    -448.578      65.667
  O     -316.546    -448.145      66.871
  C     -314.409    -448.374      65.773
  O     -314.073    -447.168      66.458
  C     -313.970    -449.639      66.505
  N     -309.697    -451.464      68.506
  C     -310.966    -451.346      69.053
  N     -311.110    -451.761      70.336
  N     -311.993    -450.862      68.408
  C     -311.710    -450.507      67.130
  C     -310.500    -450.579      66.471
  C     -309.362    -451.093      67.212
  O     -308.215    -451.207      66.778
  N     -310.603    -450.106      65.185
  C     -311.873    -449.754      65.068
  N     -312.582    -449.968      66.224
  O     -316.315    -448.230      62.010
  O     -314.108    -449.252      61.221
  H     -314.323    -446.425      65.873
  H     -314.083    -448.405      60.744
  H     -308.942    -451.834      69.053
  H     -312.326    -449.341      64.177
  H     -314.062    -449.544      67.594
  H     -313.975    -448.330      64.767
  H     -310.365    -452.165      70.881
  H     -316.346    -448.053      64.816
  H     -312.035    -451.711      70.747
  H     -316.885    -450.468      66.165
  H     -316.351    -451.681      64.097
  H     -317.199    -450.161      63.702
  P     -317.592    -446.932      66.810
  C     -316.077    -445.065      67.727
  O     -316.787    -445.555      66.597
  O     -318.609    -446.902      67.900
  O     -318.300    -447.145      65.381
  H     -319.237    -446.872      65.442
  H     -315.584    -444.151      67.469
  H     -315.351    -445.789      68.033
  H     -316.762    -444.886      68.529

 6  7  8  9  10  11  12  13  14  15  26  29  33  34 0
 6-311+G(2d,p)
 ****
 36  38  39  40  41 0
 6-311+G(2d,p)
 ****
 1  2  3  4  5  16  17  18  19  20  21  22  23  24  25 0
 3-21G
 ****
 27  28  30  31  32  35  37  42  43  44  45  46  47 0
 3-21G
 ****
 48  49 0
 3-21G
 ****


