%nproc=1
%NoSave
%Mem=1900MB
#P OB98/GEN NMR

erre ene a

0 1
  C      392.805     437.780      70.955
  O      393.003     436.499      71.519
  P      392.866     436.361      73.115
  C      392.269     433.839      72.829
  O      393.085     434.813      73.474
  C      393.001     432.492      72.770
  O      394.178     432.615      71.941
  C      393.493     431.980      74.116
  O      392.423     431.451      74.885
  C      394.526     430.952      73.660
  O      393.868     429.738      73.246
  C      395.152     431.653      72.432
  N      399.987     431.081      74.051
  C      398.977     430.192      73.869
  N      397.716     430.425      73.457
  C      397.527     431.729      73.214
  C      398.439     432.752      73.378
  C      399.729     432.392      73.817
  N      400.746     433.314      74.003
  N      397.881     433.969      73.060
  C      396.645     433.689      72.696
  N      396.389     432.346      72.766
  O      391.301     436.582      73.363
  O      393.701     437.320      73.898
  H      394.477     429.283      72.620
  H      391.146     437.045      74.212
  H      399.236     429.145      74.080
  H      395.904     434.416      72.373
  H      395.375     430.953      71.624
  H      395.246     430.691      74.434
  H      393.983     432.780      74.675
  H      392.321     431.766      72.304
  H      392.046     434.165      71.819
  H      401.583     432.982      74.464
  H      400.512     434.292      73.973
  H      391.321     433.750      73.373
  P      392.622     431.387      76.471
  C      390.074     431.409      76.811
  O      391.275     430.672      77.004
  O      392.398     432.914      76.896
  O      393.901     430.764      76.925
  H      391.603     433.291      76.490
  H      389.234     430.794      77.155
  H      389.932     431.637      75.749
  H      390.101     432.338      77.386
  H      392.926     437.725      69.893
  H      393.522     438.463      71.360
  H      391.817     438.122      71.185

 3  4  5  6  7  8  9  10  11  12  22  25  29  30  31  32 0
 6-311+G(2d,p)
 ****
 33  36  37 0
 6-311+G(2d,p)
 ****
 1  2  13  14  15  16  17  18  19  20  21  23  24  26 0
 3-21G
 ****
 27  28  34  35  38  39  40  41  42  43  44  45  46  47  48 0
 3-21G
 ****


