%nproc=1
%NoSave
%Mem=1900MB
#P OB98/GEN NMR

erre ene a

0 1
  C      229.152     214.341    -238.604
  O      229.372     213.954    -239.951
  P      228.109     213.489    -240.820
  C      229.522     211.611    -241.932
  O      228.659     212.725    -242.122
  C      230.515     211.489    -243.090
  O      229.840     210.947    -244.257
  C      231.143     212.827    -243.509
  O      232.490     212.602    -243.950
  C      230.332     213.232    -244.721
  O      231.057     214.130    -245.560
  C      230.051     211.864    -245.348
  N      228.495     211.116    -250.103
  C      229.679     210.742    -249.499
  N      230.606     210.167    -250.298
  N      229.928     210.907    -248.227
  C      228.914     211.505    -247.553
  C      227.688     211.906    -248.039
  C      227.431     211.727    -249.452
  O      226.413     212.060    -250.054
  N      226.902     212.436    -247.047
  C      227.662     212.397    -245.968
  N      228.903     211.874    -246.234
  O      227.551     214.871    -241.408
  O      227.052     212.768    -240.052
  H      231.355     214.869    -244.996
  H      226.736     215.127    -240.930
  H      228.351     210.978    -251.090
  H      227.375     212.754    -244.987
  H      230.913     211.502    -245.924
  H      229.404     213.725    -244.406
  H      230.504     210.073    -251.297
  H      231.138     213.594    -242.727
  H      231.500     209.924    -249.890
  H      231.295     210.769    -242.809
  H      228.923     210.702    -241.876
  H      230.060     211.724    -240.985
  P      233.603     212.528    -242.795
  C      234.082     215.086    -242.670
  O      234.557     213.797    -243.018
  O      234.515     211.286    -243.238
  O      233.051     212.361    -241.420
  H      234.955     210.894    -242.464
  H      234.708     215.489    -241.873
  H      233.039     215.070    -242.335
  H      234.153     215.742    -243.547
  H      230.083     214.623    -238.157
  H      228.730     213.521    -238.062
  H      228.477     215.171    -238.577

 3  4  5  6  7  8  9  10  11  12  23  26  30  31 0
 6-311+G(2d,p)
 ****
 33  35  36  37  38 0
 6-311+G(2d,p)
 ****
 1  2  13  14  15  16  17  18  19  20  21  22  24  25 0
 3-21G
 ****
 27  28  29  32  34  39  40  41  42  43  44  45  46  47  48  49 0
 3-21G
 ****


