%nproc=1
%NoSave
%Mem=1900MB
#P OB98/GEN NMR

erre ene a

0 1
  C      -85.185    -366.134    -137.396
  O      -85.314    -367.402    -136.784
  H      -86.124    -365.889    -137.896
  H      -84.386    -366.163    -138.143
  H      -84.971    -365.364    -136.650
  P      -84.116    -367.862    -135.821
  C      -82.195    -367.863    -137.567
  O      -83.059    -368.637    -136.748
  C      -81.118    -368.751    -138.183
  O      -80.317    -369.361    -137.147
  C      -81.660    -369.896    -139.034
  O      -81.978    -369.470    -140.351
  C      -80.462    -370.833    -139.034
  O      -79.464    -370.348    -139.955
  C      -79.961    -370.702    -137.590
  N      -79.155    -375.046    -135.104
  C      -78.333    -374.355    -135.972
  N      -77.125    -374.906    -136.223
  N      -78.663    -373.228    -136.550
  C      -79.905    -372.802    -136.214
  C      -80.811    -373.396    -135.365
  C      -80.430    -374.637    -134.728
  O      -81.109    -375.277    -133.932
  N      -81.963    -372.660    -135.267
  C      -81.763    -371.635    -136.070
  N      -80.530    -371.677    -136.676
  O      -84.771    -369.037    -134.949
  O      -83.547    -366.794    -134.950
  H      -79.920    -370.173    -140.798
  H      -84.405    -369.000    -134.045
  H      -78.856    -375.914    -134.695
  H      -82.473    -370.837    -136.245
  H      -78.871    -370.793    -137.517
  H      -80.721    -371.845    -139.346
  H      -76.827    -375.794    -135.850
  H      -82.510    -370.390    -138.548
  H      -76.491    -374.402    -136.830
  H      -80.452    -368.112    -138.777
  H      -81.720    -367.087    -136.958
  H      -82.787    -367.386    -138.356
  P      -83.535    -369.367    -140.744
  C      -83.999    -371.814    -141.483
  O      -83.762    -370.472    -141.887
  O      -83.612    -367.984    -141.544
  O      -84.478    -369.408    -139.593
  H      -84.525    -367.634    -141.517
  H      -84.130    -372.429    -142.349
  H      -84.882    -371.854    -140.880
  H      -83.163    -372.169    -140.917

 6  7  8  9  10  11  12  13  14  15  26  29  33  34 0
 6-311+G(2d,p)
 ****
 36  38  39  40  41 0
 6-311+G(2d,p)
 ****
 1  2  3  4  5  16  17  18  19  20  21  22  23  24  25 0
 3-21G
 ****
 27  28  30  31  32  35  37  42  43  44  45  46  47 0
 3-21G
 ****
 48  49 0
 3-21G
 ****


