%nproc=1
%NoSave
%Mem=1900MB
#P OB98/GEN NMR

erre ene a

0 1
  C     -507.345    -444.856     328.893
  O     -508.682    -445.182     329.237
  P     -509.784    -445.215     328.076
  C     -509.808    -447.701     327.302
  O     -509.368    -446.374     327.042
  C     -509.951    -448.476     325.990
  O     -511.107    -447.970     325.253
  C     -508.732    -448.369     325.064
  O     -508.607    -449.618     324.366
  C     -509.154    -447.284     324.088
  O     -508.413    -447.296     322.878
  C     -510.641    -447.628     323.932
  N     -511.421    -446.530     323.349
  C     -512.048    -446.772     322.137
  O     -511.987    -447.840     321.525
  N     -512.714    -445.708     321.589
  C     -512.741    -444.431     322.079
  O     -513.258    -443.499     321.484
  C     -512.057    -444.241     323.371
  C     -511.439    -445.285     323.938
  O     -509.501    -443.865     327.263
  O     -511.194    -445.292     328.555
  H     -507.491    -447.075     323.097
  H     -510.138    -443.174     327.521
  H     -513.192    -445.864     320.709
  H     -512.072    -443.247     323.804
  H     -510.912    -445.158     324.878
  H     -510.755    -448.519     323.312
  H     -509.021    -446.302     324.559
  H     -507.801    -448.129     325.584
  H     -510.162    -449.527     326.227
  H     -510.774    -447.669     327.806
  H     -509.096    -448.198     327.971
  P     -507.136    -450.111     323.960
  C     -506.421    -451.904     325.725
  O     -506.410    -450.553     325.316
  O     -506.446    -448.713     323.586
  O     -507.119    -451.102     322.843
  H     -506.662    -448.004     324.217
  H     -506.384    -452.583     324.871
  H     -507.322    -452.097     326.304
  H     -505.547    -452.088     326.359
  H     -506.735    -444.876     329.772
  H     -507.316    -443.877     328.462
  H     -506.975    -445.568     328.186

 3  4  5  6  7  8  9  10  11  12  13  23  28  29  30  31  32 0
 6-311+G(2d,p)
 ****
 33  34 0
 6-311+G(2d,p)
 ****
 1  2  14  15  16  17  18  19  20  21  22  24  25  26 0
 3-21G
 ****
 27  35  36  37  38  39  40  41  42  43  44  45 0
 3-21G
 ****


