%nproc=1
%NoSave
%Mem=1900MB
#P OB98/GEN NMR

erre ene a

0 1
  C       -7.487     412.895     341.645
  O       -7.662     412.472     343.002
  P       -8.613     413.383     343.928
  C       -6.522     414.805     344.582
  O       -7.880     414.796     344.115
  C       -6.056     416.230     344.843
  O       -6.913     416.911     345.789
  C       -4.648     416.327     345.447
  O       -3.624     416.168     344.472
  C       -4.663     417.728     346.010
  O       -4.356     418.684     344.971
  C       -6.130     417.894     346.460
  N       -5.891     420.168     350.999
  C       -5.656     420.692     349.731
  N       -5.313     421.989     349.675
  N       -5.726     419.987     348.640
  C       -6.084     418.698     348.859
  C       -6.359     418.070     350.051
  C       -6.258     418.857     351.262
  O       -6.427     418.444     352.408
  N       -6.714     416.763     349.864
  C       -6.670     416.590     348.575
  N       -6.302     417.746     347.902
  O       -8.471     412.700     345.367
  O      -10.031     413.443     343.464
  H       -5.065     418.605     344.299
  H       -9.282     412.869     345.897
  H       -5.832     420.768     351.822
  H       -6.917     415.677     348.047
  H       -6.524     418.889     346.183
  H       -3.915     417.896     346.803
  H       -5.326     422.627     350.468
  H       -4.536     415.599     346.283
  H       -5.176     422.404     348.748
  H       -6.066     416.785     343.904
  H       -5.871     414.331     343.830
  H       -6.450     414.179     345.480
  P       -2.892     414.740     344.391
  C       -0.651     415.724     345.332
  O       -1.733     414.810     345.516
  O       -2.088     414.855     343.023
  O       -3.790     413.574     344.431
  H       -1.940     413.949     342.639
  H       -0.997     416.679     344.975
  H        0.078     415.266     344.634
  H       -0.155     415.844     346.303
  H       -6.838     412.211     341.139
  H       -7.055     413.874     341.629
  H       -8.437     412.916     341.153

 3  4  5  6  7  8  9  10  11  12  23  26  30  31  33  0
 6-311+G(2d,p)
 ****
 35  36  37  38 0
 6-311+G(2d,p)
 ****
 1  2  13  14  15  16  17  18  19  20  21  22  24  25  27  28  29 0
 3-21G
 ****
 32  34  39  40  41  42  43  44  45  46  47  48  49 0
 3-21G
 ****


