%nproc=1
%NoSave
%Mem=1900MB
#P OB98/GEN NMR

erre ene a

0 1
  C     -119.756    -244.056     676.132
  O     -120.714    -243.056     675.841
  H     -120.027    -244.538     677.076
  H     -118.758    -243.622     676.234
  H     -119.751    -244.814     675.343
  P     -120.400    -242.036     674.640
  C     -120.539    -243.808     672.764
  O     -119.695    -242.920     673.497
  C     -120.193    -243.783     671.272
  O     -120.346    -242.447     670.749
  C     -118.754    -244.167     670.967
  O     -118.457    -245.528     671.203
  C     -118.545    -243.578     669.581
  O     -118.966    -244.441     668.528
  C     -119.451    -242.323     669.626
  N     -118.675    -241.091     669.680
  C     -118.275    -240.569     668.453
  O     -118.521    -241.111     667.372
  N     -117.531    -239.421     668.505
  C     -117.125    -238.788     669.645
  O     -116.422    -237.783     669.623
  C     -117.558    -239.399     670.912
  C     -118.303    -240.502     670.873
  O     -119.629    -240.807     675.018
  O     -121.840    -241.727     674.020
  H     -118.370    -245.213     668.537
  H     -121.818    -240.918     673.454
  H     -117.239    -239.027     667.627
  H     -117.249    -238.922     671.832
  H     -118.636    -240.974     671.797
  H     -120.083    -242.283     668.728
  H     -117.494    -243.346     669.402
  H     -118.102    -243.600     671.644
  H     -120.899    -244.436     670.745
  H     -121.573    -243.474     672.901
  H     -120.445    -244.823     673.163
  P     -116.970    -246.084     671.381
  C     -116.379    -245.932     673.909
  O     -116.296    -245.317     672.626
  O     -116.166    -246.270     670.135
  O     -117.252    -247.548     671.999
  H     -116.557    -248.147     671.657
  H     -115.892    -245.313     674.633
  H     -115.901    -246.889     673.878
  H     -117.407    -246.056     674.179

 6  7  8  9  10  11  12  13  14  15  16  26  31  32  33  34  35 0
 6-311+G(2d,p)
 ****
 36  37 0
 6-311+G(2d,p)
 ****
 1  2  3  4  5  17  18  19  20  21  22  23  24  25 0
 3-21G
 ****
 27  28  29  30  38  39  40  41  42  43  44  45 0
 3-21G
 ****


