%nproc=1
%NoSave
%Mem=1900MB
#P OB98/GEN NMR

erre ene a

0 1
  C      505.668     196.263     614.665
  O      506.763     196.799     615.404
  P      507.576     198.032     614.779
  C      509.550     196.428     614.026
  O      509.118     197.634     614.615
  C      511.017     196.560     613.603
  O      511.154     197.583     612.594
  C      511.950     196.948     614.752
  O      512.396     195.819     615.476
  C      513.050     197.684     614.025
  O      513.946     196.754     613.401
  C      512.244     198.469     612.966
  N      511.683     199.785     613.343
  C      512.534     200.838     613.671
  O      513.758     200.752     613.684
  N      511.925     202.020     613.999
  C      510.600     202.312     613.856
  O      510.122     203.417     614.107
  C      509.766     201.218     613.360
  C      510.324     200.020     613.146
  O      507.586     199.114     615.964
  O      506.994     198.583     613.519
  H      513.408     196.166     612.836
  H      507.084     199.905     615.693
  H      512.529     202.772     614.303
  H      508.716     201.419     613.199
  H      509.711     199.206     612.781
  H      512.855     198.635     612.070
  H      513.662     198.269     614.724
  H      511.447     197.659     615.422
  H      511.340     195.610     613.170
  H      508.929     196.174     613.163
  H      509.431     195.606     614.750
  P      511.783     195.501     616.924
  C      513.680     196.687     618.199
  O      513.049     195.443     617.920
  O      510.853     194.342     617.009
  O      511.079     196.878     617.341
  H      510.119     196.855     617.134
  H      514.412     196.537     618.992
  H      512.941     197.422     618.516
  H      514.210     197.038     617.303
  H      505.232     195.452     615.211
  H      506.017     195.909     613.717
  H      504.933     197.026     614.512

 3  4  5  6  7  8  9  10  11  12  13  23  28  29  30  31  32 0
 6-311+G(2d,p)
 ****
 33  34 0
 6-311+G(2d,p)
 ****
 1  2  14  15  16  17  18  19  20  21  22  24  25  26  27 0
 3-21G
 ****
 35  36  37  38  39  40  41  42  43  44  45 0
 3-21G
 ****


