%nproc=1
%NoSave
%Mem=1900MB
#P OB98/GEN NMR

erre ene a

0 1
  C      -45.394     -25.466    -122.436
  O      -44.408     -24.668    -121.810
  P      -43.120     -24.187    -122.629
  C      -43.409     -21.680    -122.144
  O      -43.380     -22.692    -123.145
  C      -44.363     -20.558    -122.545
  O      -45.710     -21.060    -122.702
  C      -44.474     -19.443    -121.519
  O      -43.320     -18.624    -121.495
  C      -45.749     -18.748    -121.981
  O      -45.479     -17.866    -123.081
  C      -46.602     -19.946    -122.450
  N      -47.636     -20.300    -121.492
  C      -48.720     -19.420    -121.404
  O      -48.727     -18.373    -122.052
  N      -49.764     -19.749    -120.575
  C      -49.676     -20.791    -119.810
  N      -50.764     -21.099    -119.056
  C      -48.478     -21.654    -119.756
  C      -47.515     -21.366    -120.631
  O      -42.639     -25.136    -123.676
  O      -42.000     -23.979    -121.500
  H      -41.187     -24.446    -121.774
  H      -46.345     -17.533    -123.389
  H      -48.427     -22.471    -119.053
  H      -46.609     -21.959    -120.679
  H      -47.074     -19.720    -123.413
  H      -46.208     -18.147    -121.190
  H      -44.635     -19.873    -120.523
  H      -44.029     -20.159    -123.513
  H      -51.573     -20.496    -119.133
  H      -42.398     -21.280    -122.023
  H      -50.926     -22.034    -118.689
  H      -43.717     -22.126    -121.192
  P      -42.394     -18.712    -120.189
  C      -40.101     -18.186    -121.270
  O      -40.932     -19.156    -120.665
  O      -42.955     -20.003    -119.426
  O      -42.438     -17.502    -119.313
  H      -42.919     -19.857    -118.462
  H      -39.065     -18.528    -121.214
  H      -40.181     -17.219    -120.765
  H      -40.378     -18.074    -122.322
  H      -46.172     -25.686    -121.735
  H      -44.951     -26.379    -122.776
  H      -45.804     -24.937    -123.270

 3  4  5  6  7  8  9  10  11  12  13  24  27  28  29  30  32 0
 6-311+G(2d,p)
 ****
 34  35 0
 6-311+G(2d,p)
 ****
 1  2  14  15  16  17  18  19  20  21  22  23  25  26 0
 3-21G
 ****
 31  33  36  37  38  39  40  41  42  43  44  45  46 0
 3-21G
 ****


