%nproc=1
%NoSave
%Mem=1900MB
#P OB98/GEN NMR

erre ene a

0 1
  C       44.865     -19.676     112.170
  O       45.919     -18.968     112.788
  P       45.656     -17.974     114.020
  C       44.555     -16.538     112.191
  O       45.356     -16.540     113.365
  C       44.583     -15.173     111.498
  O       43.871     -15.257     110.233
  C       43.955     -14.032     112.309
  O       44.703     -12.854     111.990
  C       42.557     -13.949     111.728
  O       41.923     -12.703     111.996
  C       42.843     -14.242     110.248
  N       41.644     -14.662     109.531
  C       40.993     -13.686     108.773
  O       41.389     -12.517     108.788
  N       39.876     -14.040     108.055
  C       39.393     -15.239     108.173
  N       38.289     -15.534     107.434
  C       39.977     -16.259     109.063
  C       41.096     -15.914     109.694
  O       46.712     -17.975     115.073
  O       44.216     -18.414     114.558
  H       42.420     -11.997     111.526
  H       44.286     -19.246     115.092
  H       39.507     -17.226     109.172
  H       41.598     -16.596     110.369
  H       43.251     -13.352     109.750
  H       41.930     -14.740     112.157
  H       43.953     -14.208     113.386
  H       45.630     -14.937     111.267
  H       37.930     -14.808     106.827
  H       43.524     -16.762     112.486
  H       37.886     -16.455     107.390
  H       44.886     -17.328     111.511
  P       45.487     -12.034     113.121
  C       43.499     -10.673     113.985
  O       44.732     -10.632     113.292
  O       46.966     -11.931     112.920
  O       45.141     -12.804     114.484
  H       45.769     -12.533     115.180
  H       43.224      -9.659     114.284
  H       43.571     -11.299     114.881
  H       42.721     -11.074     113.326
  H       45.256     -20.277     111.376
  H       44.153     -18.982     111.774
  H       44.387     -20.305     112.891

 3  4  5  6  7  8  9  10  11  12  13  23  27  28  29  30  32 0
 6-311+G(2d,p)
 ****
 34  35 0
 6-311+G(2d,p)
 ****
 1  2  14  15  16  17  18  19  20  21  22  24  25  26 0
 3-21G
 ****
 31  33  36  37  38  39  40  41  42  43  44  45  46 0
 3-21G
 ****


