%nproc=1
%NoSave
%Mem=1900MB
#P OB98/GEN NMR

erre ene a

0 1
  C       44.554      -0.238    -112.993
  O       44.018      -1.426    -113.546
  P       44.395      -1.856    -115.041
  C       42.129      -1.371    -116.226
  O       43.038      -2.337    -115.746
  C       40.687      -1.890    -116.168
  O       39.801      -0.768    -116.401
  C       40.336      -2.925    -117.232
  O       39.153      -3.615    -116.822
  C       40.026      -2.051    -118.426
  O       39.245      -2.730    -119.405
  C       39.346      -0.820    -117.774
  N       39.697       0.428    -118.476
  C       39.376       0.500    -119.828
  O       38.758      -0.386    -120.418
  N       39.863       1.586    -120.501
  C       40.661       2.553    -119.965
  O       41.332       3.333    -120.631
  C       40.763       2.550    -118.497
  C       40.305       1.488    -117.830
  O       45.215      -3.212    -114.824
  O       45.182      -0.847    -115.805
  H       39.781      -3.497    -119.715
  H       46.173      -3.031    -114.827
  H       39.753       1.565    -121.508
  H       41.261       3.382    -118.019
  H       40.413       1.433    -116.750
  H       38.254      -0.916    -117.779
  H       40.966      -1.751    -118.905
  H       41.136      -3.640    -117.446
  H       40.482      -2.282    -115.165
  H       42.400      -1.098    -117.250
  H       42.200      -0.453    -115.632
  P       39.235      -5.207    -116.645
  C       37.576      -5.958    -118.455
  O       37.801      -5.783    -117.070
  O       39.761      -5.692    -115.336
  O       40.172      -5.657    -117.866
  H       40.532      -6.546    -117.693
  H       36.867      -6.778    -118.596
  H       38.503      -6.195    -118.985
  H       37.146      -5.042    -118.868
  H       44.193      -0.116    -111.993
  H       44.252       0.600    -113.586
  H       45.622      -0.300    -112.982

 3  4  5  6  7  8  9  10  11  12  13  23  28  29  30  31  32 0
 6-311+G(2d,p)
 ****
 33  34 0
 6-311+G(2d,p)
 ****
 1  2  14  15  16  17  18  19  20  21  22  24  25  26  27 0
 3-21G
 ****
 35  36  37  38  39  40  41  42  43  44  45 0
 3-21G
 ****


