%nproc=1
%NoSave
%Mem=1900MB
#P OB98/GEN NMR

erre ene a

0 1
  C      793.533     368.451    -213.020
  O      794.659     369.103    -213.594
  P      795.885     368.260    -214.204
  C      797.205     368.437    -212.004
  O      796.583     367.568    -212.937
  C      797.491     367.695    -210.689
  O      796.276     367.011    -210.288
  C      798.560     366.597    -210.768
  O      799.888     367.070    -210.627
  C      798.179     365.763    -209.544
  O      798.669     366.399    -208.355
  C      796.648     365.797    -209.590
  N      794.619     361.138    -208.961
  C      795.068     362.061    -208.070
  N      795.620     363.266    -208.327
  C      795.632     363.514    -209.645
  C      795.212     362.693    -210.658
  C      794.679     361.432    -210.273
  N      794.196     360.508    -211.190
  N      795.407     363.272    -211.896
  C      795.931     364.461    -211.615
  N      796.079     364.654    -210.273
  O      796.787     369.045    -215.089
  O      795.181     367.032    -214.959
  H      799.627     366.254    -208.320
  H      795.815     366.623    -215.571
  H      795.000     361.786    -207.019
  H      796.208     365.188    -212.354
  H      796.205     365.856    -208.593
  H      798.629     364.750    -209.580
  H      798.444     365.988    -211.674
  H      797.733     368.433    -209.918
  H      796.527     369.280    -211.800
  H      793.722     359.703    -210.798
  H      794.090     360.790    -212.142
  H      798.126     368.838    -212.432
  P      801.016     366.390    -211.558
  C      802.065     364.852    -209.703
  O      801.309     364.957    -210.892
  O      802.219     367.228    -211.790
  O      800.206     366.022    -212.884
  H      799.517     365.335    -212.785
  H      802.021     363.821    -209.339
  H      801.681     365.525    -208.937
  H      803.123     365.088    -209.925
  H      792.834     369.184    -212.675
  H      793.852     367.847    -212.197
  H      793.066     367.832    -213.757

 3  4  5  6  7  8  9  10  11  12  22  25  29  30  31  32 0
 6-311+G(2d,p)
 ****
 33  36  37 0
 6-311+G(2d,p)
 ****
 1  2  13  14  15  16  17  18  19  20  21  23  24  26 0
 3-21G
 ****
 27  28  34  35  38  39  40  41  42  43  44  45  46  47  48 0
 3-21G
 ****


