%nproc=1
%NoSave
%Mem=1900MB
#P OB98/GEN NMR

erre ene a

0 1
  C     -853.617     319.977     213.108
  O     -853.434     320.164     211.722
  H     -854.072     318.998     213.269
  H     -854.286     320.747     213.506
  H     -852.655     320.008     213.634
  P     -852.633     321.478     211.248
  C     -854.666     323.036     210.803
  O     -853.549     322.736     211.630
  C     -855.325     324.349     211.240
  O     -856.074     324.099     212.456
  C     -854.318     325.475     211.522
  O     -854.884     326.710     211.059
  C     -854.214     325.498     213.042
  O     -853.823     326.773     213.550
  C     -855.638     325.061     213.445
  N     -855.649     324.487     214.801
  C     -855.441     325.376     215.853
  O     -855.239     326.577     215.632
  N     -855.396     324.873     217.130
  C     -855.466     323.603     217.323
  N     -855.389     323.176     218.614
  C     -855.625     322.618     216.229
  C     -855.717     323.131     215.011
  O     -852.738     321.415     209.652
  O     -851.219     321.565     211.724
  H     -853.884     326.743     214.533
  H     -851.945     321.809     209.234
  H     -855.655     321.558     216.448
  H     -855.828     322.490     214.140
  H     -856.330     325.915     213.416
  H     -853.483     324.754     213.374
  H     -853.349     325.316     211.051
  H     -856.038     324.644     210.465
  H     -855.265     323.869     219.342
  H     -855.392     322.222     210.891
  H     -855.388     322.187     218.887
  H     -854.333     323.098     209.758
  P     -854.475     327.178     209.577
  C     -852.296     328.398     210.309
  O     -852.878     327.359     209.534
  O     -855.033     328.677     209.497
  O     -855.041     326.314     208.502
  H     -855.806     328.715     208.903
  H     -851.234     328.390     210.176
  H     -852.527     328.245     211.342
  H     -852.688     329.342     209.992

 6  7  8  9  10  11  12  13  14  15  16  26  30  31  32  33  35 0
 6-311+G(2d,p)
 ****
 37  38 0
 6-311+G(2d,p)
 ****
 1  2  3  4  5  17  18  19  20  21  22  23  24  25 0
 3-21G
 ****
 27  28  29  34  36  39  40  41  42  43  44  45  46 0
 3-21G
 ****


