%nproc=1
%NoSave
%Mem=1900MB
#P OB98/GEN NMR

erre ene a

0 1
  C      787.848    1369.707     443.773
  O      788.634    1370.514     444.606
  P      789.080    1371.973     444.016
  C      787.607    1373.379     445.648
  O      788.939    1372.997     445.254
  C      787.554    1373.674     447.135
  O      787.950    1372.477     447.883
  C      788.469    1374.784     447.628
  O      787.915    1376.070     447.415
  C      788.558    1374.463     449.114
  O      787.360    1374.918     449.788
  C      788.590    1372.908     449.110
  N      792.361    1371.520     452.282
  C      791.178    1372.120     452.489
  N      790.216    1372.474     451.603
  C      790.618    1372.199     450.347
  C      791.837    1371.604     449.964
  C      792.708    1371.286     450.990
  N      793.941    1370.638     450.760
  N      791.893    1371.495     448.590
  C      790.747    1371.953     448.166
  N      789.933    1372.369     449.178
  O      787.869    1372.349     443.055
  O      790.395    1371.977     443.322
  H      787.368    1374.495     450.670
  H      788.178    1372.995     442.377
  H      790.929    1372.344     453.528
  H      790.439    1371.979     447.139
  H      788.012    1372.486     449.928
  H      789.412    1374.920     449.598
  H      789.463    1374.695     447.177
  H      786.498    1373.873     447.393
  H      786.909    1372.590     445.381
  H      794.406    1370.289     451.560
  H      794.122    1370.281     449.824
  H      787.338    1374.300     445.062
  P      788.937    1377.276     447.114
  C      788.045    1377.383     444.652
  O      788.260    1378.067     445.895
  O      790.203    1376.499     446.443
  O      789.315    1378.044     448.317
  H      790.998    1377.014     446.576
  H      787.313    1377.958     444.061
  H      787.595    1376.388     444.852
  H      788.971    1377.270     444.119
  H      787.626    1368.787     444.273
  H      788.382    1369.502     442.869
  H      786.936    1370.216     443.541

 3  4  5  6  7  8  9  10  11  12  22  25  29  30  31  32 0
 6-311+G(2d,p)
 ****
 33  36  37 0
 6-311+G(2d,p)
 ****
 1  2  13  14  15  16  17  18  19  20  21  23  24  26 0
 3-21G
 ****
 27  28  34  35  38  39  40  41  42  43  44  45  46  47  48 0
 3-21G
 ****


