%nproc=1
%NoSave
%Mem=1900MB
#P OB98/GEN NMR

erre ene a

0 1
  C     -103.975     296.220    -115.746
  O     -103.148     296.208    -116.908
  P     -103.139     295.049    -118.004
  C     -102.732     296.780    -119.931
  O     -102.339     295.578    -119.284
  C     -101.707     297.278    -120.965
  O     -100.488     297.673    -120.284
  C     -101.320     296.147    -121.923
  O     -102.133     295.860    -123.046
  C      -99.861     296.417    -122.270
  O      -99.714     297.174    -123.473
  C      -99.361     297.225    -121.066
  N      -94.604     296.777    -119.230
  C      -95.107     297.686    -120.139
  N      -94.224     298.565    -120.664
  N      -96.359     297.726    -120.509
  C      -97.114     296.740    -119.974
  C      -96.726     295.765    -119.079
  C      -95.348     295.770    -118.627
  O      -94.857     294.994    -117.818
  N      -97.764     294.923    -118.770
  C      -98.770     295.365    -119.497
  N      -98.428     296.477    -120.242
  O     -104.451     294.384    -118.253
  O     -102.148     293.946    -117.366
  H      -98.762     297.308    -123.628
  H     -102.476     293.072    -117.660
  H      -93.634     296.808    -118.961
  H      -99.763     294.932    -119.518
  H      -98.831     298.128    -121.392
  H      -99.322     295.473    -122.426
  H      -93.229     298.510    -120.512
  H     -101.314     295.220    -121.338
  H      -94.539     299.087    -121.485
  H     -102.069     298.173    -121.475
  H     -102.880     297.529    -119.147
  H     -103.702     296.644    -120.414
  P     -103.280     294.743    -123.122
  C     -104.769     296.127    -124.687
  O     -104.048     294.918    -124.515
  O     -104.374     295.240    -122.060
  O     -102.832     293.354    -122.814
  H     -104.984     294.512    -121.837
  H     -105.482     296.003    -125.507
  H     -104.079     296.936    -124.930
  H     -105.323     296.381    -123.775
  H     -103.784     297.109    -115.181
  H     -103.758     295.362    -115.145
  H     -105.004     296.199    -116.040

 3  4  5  6  7  8  9  10  11  12  23  26  30  31 0
 6-311+G(2d,p)
 ****
 33  35  36  37  38 0
 6-311+G(2d,p)
 ****
 1  2  13  14  15  16  17  18  19  20  21  22  24  25 0
 3-21G
 ****
 27  28  29  32  34  39  40  41  42  43  44  45  46  47  48  49 0
 3-21G
 ****


