%nproc=1
%NoSave
%Mem=1900MB
#P OB98/GEN NMR

erre ene a

0 1
  C      101.266      44.212      31.226
  O      102.357      43.620      31.903
  H      101.627      44.648      30.291
  H      100.827      45.004      31.839
  H      100.510      43.457      30.996
  P      102.038      42.974      33.337
  C      101.816      40.501      32.597
  O      101.149      41.668      33.055
  C      101.503      39.316      33.507
  O      102.091      39.505      34.812
  C      100.015      39.068      33.726
  O       99.465      38.308      32.664
  C      100.034      38.307      35.044
  O      100.367      36.918      34.835
  C      101.153      39.024      35.813
  N       98.087      40.352      39.597
  C       98.225      39.144      38.944
  N       97.405      38.145      39.338
  N       99.081      38.933      37.981
  C       99.795      40.034      37.651
  C       99.750      41.286      38.219
  C       98.834      41.490      39.321
  O       98.725      42.511      39.993
  N      100.644      42.136      37.619
  C      101.202      41.409      36.671
  N      100.716      40.127      36.646
  O      100.989      44.000      33.982
  O      103.217      42.777      34.228
  H      101.164      36.861      34.280
  H      101.173      44.075      34.938
  H       97.432      40.448      40.351
  H      101.964      41.758      35.988
  H      101.703      38.338      36.467
  H       99.057      38.319      35.529
  H       96.552      38.322      39.849
  H       99.474      40.012      33.861
  H       97.457      37.284      38.809
  H      101.979      38.430      33.067
  H      102.895      40.686      32.599
  H      101.493      40.278      31.576
  P       97.919      38.521      32.303
  C       98.442      39.629      30.014
  O       97.814      39.755      31.281
  O       97.312      39.107      33.664
  O       97.200      37.283      31.887
  H       96.791      38.419      34.117
  H       98.287      40.524      29.448
  H       98.021      38.797      29.488
  H       99.491      39.471      30.150

 6  7  8  9  10  11  12  13  14  15  26  29  33  34 0
 6-311+G(2d,p)
 ****
 36  38  39  40  41 0
 6-311+G(2d,p)
 ****
 1  2  3  4  5  16  17  18  19  20  21  22  23  24  25 0
 3-21G
 ****
 27  28  30  31  32  35  37  42  43  44  45  46  47 0
 3-21G
 ****
 48  49 0
 3-21G
 ****


