%nproc=1
%NoSave
%Mem=1900MB
#P OB98/GEN NMR

erre ene a

0 1
  C      -94.403    -895.690    -893.450
  O      -93.285    -894.780    -893.470
  P      -92.657    -894.260    -892.080
  C      -90.204    -895.200    -892.420
  O      -91.456    -895.220    -891.690
  C      -89.830    -896.590    -892.880
  O      -90.817    -897.130    -893.800
  C      -88.501    -896.710    -893.600
  O      -87.412    -896.630    -892.700
  C      -88.646    -898.030    -894.310
  O      -88.295    -899.140    -893.420
  C      -90.134    -898.060    -894.680
  N      -90.412    -897.800    -896.090
  C      -90.282    -898.860    -896.960
  O      -89.925    -900.000    -896.580
  N      -90.556    -898.600    -898.260
  C      -90.859    -897.400    -898.810
  O      -91.077    -897.210    -900.000
  C      -90.884    -896.270    -897.840
  C      -90.651    -896.500    -896.550
  O      -93.806    -894.670    -891.030
  O      -92.365    -892.800    -892.030
  H      -87.327    -899.030    -893.240
  H      -93.768    -894.060    -890.270
  H      -90.503    -899.390    -898.900
  H      -91.104    -895.280    -898.210
  H      -90.672    -895.680    -895.820
  H      -90.574    -899.030    -894.430
  H      -87.976    -898.120    -895.180
  H      -88.443    -895.890    -894.360
  H      -89.860    -897.280    -891.970
  H      -89.439    -894.800    -891.770
  H      -90.342    -894.520    -893.260
  P      -87.050    -895.160    -892.060
  C      -87.074    -895.940    -889.570
  O      -87.686    -895.200    -890.590
  O      -88.026    -894.240    -892.930
  O      -85.595    -894.850    -892.180
  H      -88.884    -894.690    -893.180
  H      -85.984    -895.950    -889.690
  H      -87.481    -896.970    -889.550
  H      -87.322    -895.470    -888.610
  H      -94.687    -895.928    -894.454
  H      -95.227    -895.231    -892.945
  H      -94.124    -896.586    -892.936

 3  4  5  6  7  8  9  10  11  12  13  23  28  29  30  31  32 0
 6-311+G(2d,p)
 ****
 33  34 0
 6-311+G(2d,p)
 ****
 1  2  14  15  16  17  18  19  20  21  22  24  25  26 0
 3-21G
 ****
 27  35  36  37  38  39  40  41  42  43  44  45 0
 3-21G
 ****


