%nproc=1
%NoSave
%Mem=1900MB
#P OB98/GEN NMR

erre ene a

0 1
  C     -383.792      68.052    -137.061
  O     -384.257      67.617    -138.345
  P     -383.940      68.567    -139.601
  C     -383.134      66.795    -141.335
  O     -384.145      67.716    -140.944
  C     -383.691      65.791    -142.356
  O     -384.749      65.000    -141.780
  C     -384.305      66.460    -143.571
  O     -383.296      66.896    -144.465
  C     -385.191      65.350    -144.136
  O     -384.477      64.528    -145.074
  C     -385.568      64.538    -142.875
  N     -386.987      64.624    -142.548
  C     -387.739      63.473    -142.781
  O     -387.208      62.464    -143.254
  N     -389.084      63.499    -142.496
  C     -389.630      64.590    -142.045
  N     -390.966      64.558    -141.786
  C     -388.868      65.839    -141.811
  C     -387.564      65.791    -142.086
  O     -382.349      68.755    -139.525
  O     -384.656      69.877    -139.568
  H     -384.288      65.102    -145.845
  H     -382.100      69.639    -139.854
  H     -389.367      66.725    -141.442
  H     -386.930      66.660    -141.947
  H     -385.321      63.474    -143.017
  H     -386.059      65.759    -144.661
  H     -384.932      67.309    -143.260
  H     -382.875      65.120    -142.667
  H     -391.451      63.691    -141.957
  H     -382.754      66.258    -140.464
  H     -391.489      65.348    -141.441
  H     -382.290      67.353    -141.756
  P     -382.970      68.469    -144.515
  C     -380.429      68.045    -144.600
  O     -381.553      68.571    -145.277
  O     -382.549      68.765    -142.996
  O     -384.047      69.380    -144.985
  H     -382.414      69.721    -142.865
  H     -379.590      67.992    -145.291
  H     -380.641      67.043    -144.212
  H     -380.156      68.711    -143.770
  H     -384.068      67.332    -136.319
  H     -384.234      68.997    -136.823
  H     -382.727      68.151    -137.082

 3  4  5  6  7  8  9  10  11  12  13  21  23  27  28  29  30  32 0
 6-311+G(2d,p)
 ****
 34  35 0
 6-311+G(2d,p)
 ****
 1  2  14  15  16  17  18  19  20  22  24  25  26 0
 3-21G
 ****
 31  33  36  37  38  39  40  41  42  43  44  45  46 0
 3-21G
 ****


