%nproc=1
%NoSave
%Mem=1900MB
#P OB98/GEN NMR

erre ene a

0 1
  C     -204.253     408.365      37.421
  O     -202.936     408.459      37.941
  P     -201.997     409.729      37.632
  C     -202.472     410.617      40.025
  O     -202.510     410.886      38.634
  C     -201.380     411.451      40.704
  O     -201.691     412.854      40.513
  C     -201.242     411.208      42.217
  O     -199.855     411.335      42.544
  C     -202.041     412.350      42.819
  O     -201.669     412.634      44.158
  C     -201.734     413.475      41.816
  N     -202.729     414.551      41.854
  C     -202.345     415.765      42.422
  O     -201.211     415.921      42.896
  N     -203.249     416.803      42.446
  C     -204.463     416.608      42.022
  N     -205.303     417.676      42.007
  C     -204.942     415.307      41.521
  C     -204.027     414.340      41.445
  O     -201.934     410.128      36.202
  O     -200.586     409.344      38.276
  H     -200.744     412.965      44.156
  H     -200.022     408.803      37.661
  H     -205.973     415.181      41.201
  H     -204.279     413.359      41.066
  H     -200.732     413.888      42.003
  H     -203.109     412.093      42.805
  H     -201.595     410.218      42.515
  H     -200.431     411.250      40.193
  H     -204.897     418.584      42.198
  H     -202.244     409.550      40.166
  H     -206.123     417.686      41.412
  H     -203.455     410.819      40.469
  P     -199.262     410.424      43.728
  C     -199.757     408.425      42.151
  O     -199.736     408.916      43.473
  O     -200.189     410.867      44.967
  O     -197.821     410.639      44.072
  H     -199.702     410.715      45.801
  H     -200.093     407.384      42.169
  H     -198.763     408.462      41.700
  H     -200.464     409.002      41.541
  H     -204.700     407.448      37.745
  H     -204.217     408.386      36.352
  H     -204.836     409.190      37.774

 3  4  5  6  7  8  9  10  11  12  13  23  27  28  29  30  32 0
 6-311+G(2d,p)
 ****
 34  35 0
 6-311+G(2d,p)
 ****
 1  2  14  15  16  17  18  19  20  21  22  24  25  26 0
 3-21G
 ****
 31  33  36  37  38  39  40  41  42  43  44  45  46 0
 3-21G
 ****


