%nproc=1
%NoSave
%Mem=1900MB
#P OB98/GEN NMR

erre ene a

0 1
  C     -187.652     125.629    -283.178
  O     -188.493     126.514    -282.465
  H     -187.604     125.955    -284.220
  H     -188.060     124.617    -283.147
  H     -186.640     125.637    -282.762
  P     -188.576     126.387    -280.871
  C     -188.774     128.908    -280.362
  O     -189.425     127.643    -280.347
  C     -189.142     129.698    -279.109
  O     -190.500     130.178    -279.206
  C     -189.084     128.882    -277.821
  O     -187.742     128.688    -277.403
  C     -189.922     129.751    -276.897
  O     -189.154     130.855    -276.391
  C     -191.031     130.245    -277.859
  N     -192.271     129.486    -277.751
  C     -192.972     129.608    -276.554
  O     -192.568     130.285    -275.607
  N     -194.146     128.909    -276.473
  C     -194.638     128.054    -277.416
  O     -195.672     127.410    -277.271
  C     -193.839     127.936    -278.648
  C     -192.714     128.647    -278.754
  O     -187.277     126.169    -280.166
  O     -189.580     125.159    -280.644
  H     -189.678     131.252    -275.668
  H     -189.073     124.352    -280.441
  H     -194.660     128.976    -275.608
  H     -194.195     127.261    -279.416
  H     -192.110     128.565    -279.654
  H     -191.256     131.301    -277.668
  H     -190.296     129.207    -276.032
  H     -189.591     127.921    -277.957
  H     -188.480     130.571    -279.047
  H     -189.095     129.461    -281.249
  H     -187.690     128.748    -280.417
  P     -187.272     127.294    -276.778
  C     -185.048     126.954    -278.000
  O     -185.667     127.287    -276.764
  O     -187.897     126.080    -277.385
  O     -187.649     127.421    -275.228
  H     -188.431     126.872    -275.031
  H     -183.985     126.978    -277.884
  H     -185.341     127.661    -278.748
  H     -185.352     125.973    -278.298

 6  7  8  9  10  11  12  13  14  15  16  26  31  32  33  34  35 0
 6-311+G(2d,p)
 ****
 36  37 0
 6-311+G(2d,p)
 ****
 1  2  3  4  5  17  18  19  20  21  22  23  24  25 0
 3-21G
 ****
 27  28  29  30  38  39  40  41  42  43  44  45 0
 3-21G
 ****


