%nproc=1
%NoSave
%Mem=1900MB
#P OB98/GEN NMR

erre ene a

0 1
  C       88.161       6.059    -340.010
  O       87.693       5.870    -341.329
  H       88.166       5.093    -339.498
  H       87.496       6.738    -339.473
  H       89.179       6.460    -340.014
  P       87.802       7.129    -342.319
  C       87.003       5.664    -344.307
  O       86.797       6.840    -343.538
  C       85.797       5.408    -345.209
  O       84.712       4.827    -344.447
  C       85.230       6.661    -345.869
  O       85.956       7.017    -347.038
  C       83.830       6.183    -346.215
  O       83.878       5.342    -347.384
  C       83.465       5.353    -344.978
  N       78.973       6.947    -343.249
  C       79.277       6.196    -344.369
  N       78.238       5.825    -345.146
  N       80.493       5.845    -344.702
  C       81.434       6.298    -343.839
  C       81.255       7.045    -342.697
  C       79.909       7.420    -342.336
  O       79.579       8.062    -341.344
  N       82.450       7.301    -342.076
  C       83.350       6.730    -342.848
  N       82.786       6.112    -343.938
  O       89.250       6.953    -342.986
  O       87.661       8.465    -341.672
  H       82.970       5.023    -347.540
  H       89.641       7.836    -343.125
  H       78.022       7.200    -343.046
  H       84.415       6.731    -342.665
  H       82.825       4.500    -345.221
  H       83.149       7.005    -346.440
  H       77.284       6.104    -344.974
  H       85.170       7.496    -345.160
  H       78.431       5.245    -345.953
  H       86.095       4.673    -345.969
  H       87.136       4.811    -343.634
  H       87.905       5.788    -344.912
  P       85.918       8.556    -347.497
  C       86.668       7.896    -349.896
  O       85.683       8.526    -349.084
  O       87.446       9.010    -347.360
  O       85.000       9.426    -346.712
  H       87.500       9.980    -347.257
  H       86.374       7.955    -350.923
  H       86.762       6.869    -349.611
  H       87.608       8.390    -349.765

 6  7  8  9  10  11  12  13  14  15  26  29  33  34 0
 6-311+G(2d,p)
 ****
 36  38  39  40  41 0
 6-311+G(2d,p)
 ****
 1  2  3  4  5  16  17  18  19  20  21  22  23  24  25 0
 3-21G
 ****
 27  28  30  31  32  35  37  42  43  44  45  46  47 0
 3-21G
 ****
 48  49 0
 3-21G
 ****


