%nproc=1
%NoSave
%Mem=1900MB
#P OB98/GEN NMR

erre ene a

0 1
  C      309.509      -8.889     231.373
  O      309.665      -8.229     230.133
  H      308.476      -9.227     231.494
  H      310.170      -9.760     231.393
  H      309.781      -8.219     232.194
  P      308.747      -6.936     229.883
  C      309.114      -7.300     227.341
  O      309.120      -6.374     228.422
  C      309.286      -6.555     226.017
  O      308.456      -5.365     226.050
  C      310.731      -6.121     225.709
  O      311.154      -6.674     224.461
  C      310.647      -4.607     225.560
  O      311.447      -4.103     224.490
  C      309.162      -4.357     225.318
  N      309.480       0.611     224.217
  C      309.612      -0.488     223.441
  N      309.412      -1.779     223.768
  C      309.009      -1.884     225.050
  C      308.802      -0.857     225.953
  C      309.079       0.446     225.498
  N      309.000       1.557     226.307
  N      308.396      -1.354     227.180
  C      308.394      -2.665     227.022
  N      308.777      -3.031     225.761
  O      309.376      -5.844     230.873
  O      307.291      -7.135     230.130
  H      312.377      -4.284     224.727
  H      308.660      -5.413     231.378
  H      309.933      -0.304     222.416
  H      308.174      -3.392     227.800
  H      308.894      -4.455     224.254
  H      310.983      -4.140     226.495
  H      311.431      -6.399     226.500
  H      308.900      -7.192     225.209
  H      308.158      -7.835     227.325
  H      309.323       2.432     225.935
  H      308.804       1.425     227.290
  H      309.918      -8.026     227.487
  P      311.194      -8.283     224.364
  C      313.261      -9.376     223.218
  O      312.037      -8.668     223.053
  O      309.688      -8.651     223.956
  O      311.612      -8.957     225.631
  H      309.470      -9.552     224.267
  H      313.700      -9.557     222.259
  H      313.070     -10.310     223.705
  H      313.932      -8.794     223.814

 6  7  8  9  10  11  12  13  14  15  25  28  32  33  34  35 0
 6-311+G(2d,p)
 ****
 36  39  40 0
 6-311+G(2d,p)
 ****
 1  2  3  4  5  16  17  18  19  20  21  22  23  24 0
 3-21G
 ****
 26  27  29  30  31  37  38  41  42  43  44  45  46  47  48 0
 3-21G
 ****


