%nproc=1
%NoSave
%Mem=1900MB
#P OB98/GEN NMR

erre ene a

0 1
  C     -155.586    -752.116     669.929
  O     -155.411    -751.731     668.558
  P     -155.724    -750.200     668.204
  C     -153.195    -749.495     668.173
  O     -154.499    -749.319     668.753
  C     -152.156    -748.648     668.905
  O     -152.135    -748.948     670.308
  C     -150.730    -748.883     668.438
  O     -150.434    -748.172     667.230
  C     -149.926    -748.304     669.589
  O     -149.840    -746.885     669.444
  C     -150.800    -748.667     670.805
  N     -147.418    -750.339     674.188
  C     -147.617    -749.071     673.691
  N     -146.802    -748.094     674.187
  N     -148.509    -748.773     672.805
  C     -149.277    -749.848     672.417
  C     -149.149    -751.165     672.828
  C     -148.151    -751.474     673.805
  O     -147.904    -752.598     674.263
  N     -150.121    -751.953     672.226
  C     -150.795    -751.132     671.470
  N     -150.306    -749.836     671.540
  O     -156.928    -749.816     669.195
  O     -156.093    -749.980     666.773
  H     -149.450    -746.698     668.567
  H     -157.470    -749.099     668.824
  H     -146.688    -750.521     674.889
  H     -151.636    -751.402     670.864
  H     -150.881    -747.831     671.516
  H     -148.902    -748.688     669.633
  H     -146.137    -748.227     674.919
  H     -150.509    -749.968     668.317
  H     -146.961    -747.141     673.841
  H     -152.417    -747.595     668.783
  H     -153.227    -749.204     667.110
  H     -152.934    -750.567     668.202
  P     -150.489    -749.010     665.836
  C     -152.559    -747.696     664.950
  O     -152.018    -748.946     665.346
  O     -150.291    -750.541     666.337
  O     -149.458    -748.613     664.830
  H     -149.860    -751.061     665.660
  H     -151.858    -747.112     664.359
  H     -152.828    -747.116     665.875
  H     -153.471    -747.865     664.395
  H     -155.349    -753.153     670.041
  H     -156.602    -751.949     670.219
  H     -154.938    -751.533     670.549

 3  4  5  6  7  8  9  10  11  12  23  26  30  31  33  0
 6-311+G(2d,p)
 ****
 35  36  37  38 0
 6-311+G(2d,p)
 ****
 1  2  13  14  15  16  17  18  19  20  21  22  24  25  27  28  29 0
 3-21G
 ****
 32  34  39  40  41  42  43  44  45  46  47  48  49 0
 3-21G
 ****


