%nproc=1
%NoSave
%Mem=1900MB
#P OB98/GEN NMR

erre ene a

0 1
  C     -129.385    -150.731     -89.439
  O     -129.782    -152.066     -89.690
  H     -129.506    -150.530     -88.370
  H     -130.019    -150.040     -90.000
  H     -128.335    -150.581     -89.706
  P     -129.572    -152.675     -91.156
  C     -130.718    -152.433     -93.459
  O     -130.592    -151.914     -92.141
  C     -132.060    -152.020     -94.074
  O     -133.132    -152.664     -93.328
  C     -132.316    -150.511     -94.043
  O     -132.996    -150.125     -95.243
  C     -133.234    -150.332     -92.851
  O     -134.050    -149.163     -92.963
  C     -134.026    -151.638     -92.860
  N     -137.718    -150.693     -89.538
  C     -137.551    -150.250     -90.834
  N     -138.496    -149.415     -91.313
  N     -136.542    -150.589     -91.591
  C     -135.681    -151.450     -90.991
  C     -135.740    -151.962     -89.716
  C     -136.846    -151.556     -88.877
  O     -137.037    -151.906     -87.713
  N     -134.665    -152.785     -89.465
  C     -133.971    -152.772     -90.586
  N     -134.536    -151.965     -91.538
  O     -129.626    -154.170     -91.234
  O     -128.144    -152.121     -91.616
  H     -134.590    -149.270     -93.778
  H     -127.468    -152.817     -91.574
  H     -138.502    -150.389     -88.993
  H     -133.049    -153.319     -90.757
  H     -134.892    -151.594     -93.534
  H     -132.634    -150.237     -91.935
  H     -139.315    -149.127     -90.791
  H     -131.389    -149.937     -93.950
  H     -138.418    -149.093     -92.274
  H     -132.105    -152.409     -95.096
  H     -130.657    -153.525     -93.409
  H     -129.892    -152.058     -94.073
  P     -132.301    -149.078     -96.237
  C     -131.885    -146.540     -96.335
  O     -132.644    -147.588     -95.745
  O     -132.521    -149.329     -97.691
  O     -130.742    -149.220     -95.861
  H     -130.212    -149.099     -96.673
  H     -132.201    -145.600     -95.932
  H     -132.037    -146.543     -97.394
  H     -130.847    -146.688     -96.123

 6  7  8  9  10  11  12  13  14  15  26  29  33  34 0
 6-311+G(2d,p)
 ****
 36  38  39  40  41 0
 6-311+G(2d,p)
 ****
 1  2  3  4  5  16  17  18  19  20  21  22  23  24  25 0
 3-21G
 ****
 27  28  30  31  32  35  37  42  43  44  45  46  47 0
 3-21G
 ****
 48  49 0
 3-21G
 ****


