%nproc=1
%NoSave
%Mem=1900MB
#P OB98/GEN NMR

erre ene a

0 1
  C     -782.424     -50.964    -542.070
  O     -781.088     -51.083    -541.627
  H     -783.063     -51.560    -541.408
  H     -782.521     -51.361    -543.090
  H     -782.757     -49.924    -542.036
  P     -779.963     -50.156    -542.313
  C     -779.679     -48.879    -540.082
  O     -779.032     -49.605    -541.129
  C     -778.667     -48.508    -538.980
  O     -778.338     -49.721    -538.228
  C     -777.328     -47.927    -539.510
  O     -776.847     -47.029    -538.503
  C     -776.477     -49.183    -539.585
  O     -775.121     -48.905    -539.795
  C     -776.893     -49.851    -538.261
  N     -776.496     -51.244    -538.121
  C     -775.649     -51.582    -537.062
  O     -775.218     -50.766    -536.236
  N     -775.295     -52.908    -536.976
  C     -775.698     -53.905    -537.811
  O     -775.384     -55.080    -537.664
  C     -776.595     -53.495    -538.913
  C     -776.952     -52.214    -539.001
  O     -780.468     -49.117    -543.260
  O     -779.003     -51.219    -543.044
  H     -779.207     -51.226    -544.001
  H     -774.661     -49.731    -540.065
  H     -774.693     -53.151    -536.208
  H     -776.911     -54.265    -539.599
  H     -777.602     -51.875    -539.806
  H     -776.488     -49.275    -537.431
  H     -776.794     -49.795    -540.443
  H     -777.451     -47.387    -540.448
  H     -779.157     -47.825    -538.280
  H     -780.466     -49.510    -539.661
  H     -780.130     -47.965    -540.493
  P     -775.737     -45.889    -538.782
  C     -777.156     -43.858    -538.034
  O     -776.008     -44.658    -537.775
  O     -775.648     -45.479    -540.225
  O     -774.355     -46.521    -538.286
  H     -773.613     -46.112    -538.766
  H     -777.222     -43.082    -537.301
  H     -778.034     -44.468    -537.988
  H     -777.075     -43.423    -539.008

 6  7  8  9  10  11  12  13  14  15  16  27  31  32  33  34  35 0
 6-311+G(2d,p)
 ****
 36  37 0
 6-311+G(2d,p)
 ****
 1  2  3  4  5  17  18  19  20  21  22  23  24  25 0
 3-21G
 ****
 26  28  29  30  38  39  40  41  42  43  44  45 0
 3-21G
 ****


