%nproc=1
%NoSave
%Mem=1900MB
#P OB98/GEN NMR

erre ene a

0 1
  C      247.159    1108.584     364.001
  O      247.799    1107.587     364.806
  P      248.315    1107.966     366.269
  C      250.296    1106.314     366.193
  O      249.135    1106.725     366.886
  C      251.115    1105.310     367.032
  O      251.585    1105.939     368.246
  C      250.293    1104.081     367.436
  O      250.934    1102.841     367.123
  C      249.993    1104.312     368.904
  O      249.725    1103.116     369.622
  C      251.201    1105.130     369.363
  N      250.899    1105.927     370.548
  C      251.435    1105.492     371.752
  O      252.078    1104.425     371.860
  N      251.174    1106.268     372.849
  C      250.374    1107.362     372.879
  O      250.129    1108.010     373.898
  C      249.783    1107.769     371.588
  C      250.068    1107.032     370.494
  O      247.297    1108.570     367.179
  O      249.504    1109.025     365.967
  H      250.479    1102.490     369.465
  H      249.451    1109.726     366.653
  H      251.571    1105.979     373.742
  H      249.125    1108.613     371.567
  H      249.634    1107.285     369.535
  H      252.053    1104.479     369.616
  H      249.095    1104.939     368.976
  H      249.337    1104.018     366.872
  H      251.976    1105.008     366.424
  H      250.913    1107.193     365.986
  H      250.009    1105.911     365.211
  P      250.371    1101.734     366.104
  C      250.306    1099.785     367.818
  O      250.843    1100.300     366.601
  O      250.608    1102.015     364.652
  O      248.795    1101.735     366.403
  H      248.290    1101.662     365.570
  H      250.969    1099.021     368.181
  H      249.332    1099.343     367.615
  H      250.219    1100.572     368.567
  H      246.881    1108.158     363.060
  H      247.834    1109.398     363.838
  H      246.284    1108.941     364.504

 3  4  5  6  7  8  9  10  11  12  13  23  28  29  30  31  32 0
 6-311+G(2d,p)
 ****
 33  34 0
 6-311+G(2d,p)
 ****
 1  2  14  15  16  17  18  19  20  21  22  24  25  26  27 0
 3-21G
 ****
 35  36  37  38  39  40  41  42  43  44  45 0
 3-21G
 ****


