%nproc=1
%NoSave
%Mem=1900MB
#P OB98/GEN NMR

erre ene a

0 1
  C      171.607     131.118    -123.573
  O      172.698     130.308    -123.960
  H      171.189     131.598    -124.464
  H      171.945     131.897    -122.884
  H      170.822     130.520    -123.099
  P      173.323     129.284    -122.895
  C      174.818     130.882    -121.526
  O      173.612     130.131    -121.560
  C      175.128     131.347    -120.098
  O      174.113     132.320    -119.697
  C      175.112     130.210    -119.050
  O      176.071     130.551    -118.040
  C      173.694     130.325    -118.517
  O      173.522     129.607    -117.326
  C      173.561     131.850    -118.449
  N      172.187     132.307    -118.266
  C      171.841     132.809    -117.013
  O      172.625     132.904    -116.072
  N      170.533     133.193    -116.868
  C      169.562     133.125    -117.826
  O      168.410     133.507    -117.648
  C      169.982     132.560    -119.121
  C      171.255     132.183    -119.281
  O      174.467     128.459    -123.381
  O      172.073     128.371    -122.472
  H      172.093     127.538    -122.980
  H      173.999     130.045    -116.589
  H      170.264     133.559    -115.966
  H      169.233     132.471    -119.896
  H      171.603     131.762    -120.219
  H      174.186     132.258    -117.647
  H      172.984     129.908    -119.242
  H      175.357     129.234    -119.478
  H      176.091     131.873    -120.098
  H      174.699     131.751    -122.183
  H      175.641     130.261    -121.903
  P      177.630     130.168    -118.138
  C      177.500     127.748    -117.258
  O      177.775     128.585    -118.370
  O      178.445     130.675    -116.990
  O      178.142     130.809    -119.517
  H      179.060     131.121    -119.405
  H      177.632     126.724    -117.541
  H      176.491     127.902    -116.936
  H      178.170     127.986    -116.458

 6  7  8  9  10  11  12  13  14  15  16  27  31  32  33  34  35 0
 6-311+G(2d,p)
 ****
 36  37 0
 6-311+G(2d,p)
 ****
 1  2  3  4  5  17  18  19  20  21  22  23  24  25 0
 3-21G
 ****
 26  28  29  30  38  39  40  41  42  43  44  45 0
 3-21G
 ****


