%nproc=1
%NoSave
%Mem=1900MB
#P OB98/GEN NMR

erre ene a

0 1
  C      381.856     318.681     253.631
  O      381.751     317.970     254.876
  P      382.740     318.269     256.114
  C      384.904     317.289     257.115
  O      384.024     317.311     255.990
  C      386.088     316.330     256.890
  O      385.644     314.961     256.845
  C      386.843     316.562     255.582
  O      387.719     317.668     255.702
  C      387.537     315.215     255.393
  O      388.722     315.146     256.197
  C      386.472     314.242     255.920
  N      385.794     310.105     252.972
  C      386.673     310.373     253.970
  N      386.801     311.502     254.702
  C      385.867     312.408     254.340
  C      384.911     312.272     253.336
  C      384.895     311.060     252.633
  N      384.012     310.795     251.606
  N      384.153     313.418     253.238
  C      384.623     314.229     254.170
  N      385.660     313.654     254.859
  O      382.074     318.227     257.450
  O      383.333     319.727     255.810
  H      389.260     315.935     256.002
  H      383.566     320.164     256.659
  H      387.376     309.575     254.205
  H      384.249     315.227     254.388
  H      386.927     313.407     256.485
  H      387.832     315.034     254.357
  H      386.138     316.727     254.762
  H      386.766     316.433     257.743
  H      384.330     316.961     257.991
  H      384.089     309.908     251.132
  H      383.368     311.515     251.321
  H      385.272     318.303     257.285
  P      387.315     319.090     255.068
  C      386.789     320.007     252.733
  O      387.034     318.850     253.512
  O      388.238     320.222     255.380
  O      385.848     319.365     255.658
  H      385.700     320.320     255.736
  H      385.750     320.332     252.865
  H      386.950     319.759     251.679
  H      387.467     320.818     253.010
  H      381.107     318.327     252.954
  H      382.825     318.519     253.208
  H      381.713     319.727     253.805

 3  4  5  6  7  8  9  10  11  12  22  25  29  30  31  32 0
 6-311+G(2d,p)
 ****
 33  36  37 0
 6-311+G(2d,p)
 ****
 1  2  13  14  15  16  17  18  19  20  21  23  24  26 0
 3-21G
 ****
 27  28  34  35  38  39  40  41  42  43  44  45  46  47  48 0
 3-21G
 ****


