%nproc=1
%NoSave
%Mem=1900MB
#P OB98/GEN NMR

erre ene a

0 1
  C      366.361     122.653     -37.604
  O      364.943     122.817     -37.484
  P      364.453     124.014     -36.529
  C      362.345     124.707     -37.876
  O      362.855     124.139     -36.677
  C      360.815     124.640     -37.924
  O      360.359     123.306     -38.293
  C      360.143     124.984     -36.585
  O      358.914     125.660     -36.897
  C      359.825     123.618     -36.006
  O      358.830     123.693     -34.989
  C      359.415     122.884     -37.280
  N      356.498     118.848     -36.438
  C      356.186     120.191     -36.406
  N      354.894     120.508     -36.167
  N      357.059     121.144     -36.595
  C      358.307     120.680     -36.868
  C      358.744     119.372     -36.945
  C      357.758     118.333     -36.697
  O      357.983     117.128     -36.719
  N      360.070     119.303     -37.273
  C      360.452     120.571     -37.326
  N      359.413     121.445     -37.149
  O      365.009     125.323     -37.269
  O      364.952     123.915     -35.131
  H      357.997     123.977     -35.424
  H      365.823     125.634     -36.837
  H      355.789     118.159     -36.269
  H      361.458     120.910     -37.520
  H      358.404     123.166     -37.614
  H      360.730     123.167     -35.572
  H      354.162     119.827     -36.058
  H      360.755     125.597     -35.914
  H      354.632     121.489     -36.178
  H      360.466     125.332     -38.699
  H      362.749     124.172     -38.743
  H      362.703     125.739     -37.964
  P      358.624     127.051     -36.165
  C      357.072     127.885     -38.073
  O      357.203     127.575     -36.697
  O      359.669     128.051     -36.864
  O      358.801     127.034     -34.685
  H      360.026     128.668     -36.196
  H      356.029     127.766     -38.357
  H      357.685     127.229     -38.693
  H      357.371     128.927     -38.239
  H      366.571     121.833     -38.259
  H      366.780     122.455     -36.640
  H      366.791     123.548     -38.003

 3  4  5  6  7  8  9  10  11  12  23  26  30  31 0
 6-311+G(2d,p)
 ****
 33  35  36  37  38 0
 6-311+G(2d,p)
 ****
 1  2  13  14  15  16  17  18  19  20  21  22  24  25 0
 3-21G
 ****
 27  28  29  32  34  39  40  41  42  43  44  45  46  47  48  49 0
 3-21G
 ****


