%nproc=1
%NoSave
%Mem=1900MB
#P OB98/GEN NMR

erre ene a

0 1
  C     1967.906     -91.925     393.582
  O     1968.754     -91.224     394.464
  H     1968.058     -91.562     392.560
  H     1966.865     -91.773     393.856
  H     1968.151     -92.996     393.611
  P     1968.618     -91.533     396.021
  C     1966.922     -90.886     397.909
  O     1967.247     -90.826     396.517
  C     1967.185     -89.528     398.548
  O     1966.451     -88.507     397.837
  C     1966.716     -89.454     399.990
  O     1967.628     -90.030     400.906
  C     1966.649     -87.920     400.178
  O     1967.929     -87.375     400.514
  C     1966.186     -87.446     398.780
  N     1964.776     -87.067     398.790
  C     1964.512     -85.744     399.180
  O     1965.391     -84.938     399.468
  N     1963.186     -85.394     399.223
  C     1962.118     -86.217     398.981
  O     1960.972     -85.865     399.099
  C     1962.463     -87.595     398.603
  C     1963.747     -87.960     398.536
  O     1969.767     -90.644     396.687
  O     1968.741     -92.977     396.392
  H     1970.498     -91.223     396.975
  H     1967.889     -86.419     400.292
  H     1962.982     -84.460     399.493
  H     1961.652     -88.294     398.405
  H     1964.031     -88.996     398.272
  H     1966.785     -86.583     398.469
  H     1965.963     -87.653     400.970
  H     1965.708     -89.858     400.103
  H     1968.272     -89.321     398.470
  H     1967.535     -91.649     398.393
  H     1965.870     -91.168     398.002
  P     1967.201     -90.032     402.457
  C     1966.540     -88.114     404.123
  O     1967.184     -88.512     402.919
  O     1968.528     -90.657     403.124
  O     1965.973     -90.837     402.738
  H     1969.345     -90.447     402.580
  H     1966.643     -87.057     404.250
  H     1966.991     -88.618     404.952
  H     1965.502     -88.368     404.073

 6  7  8  9  10  11  12  13  14  15  16  27  31  32  33  34  35 0
 6-311+G(2d,p)
 ****
 36  37 0
 6-311+G(2d,p)
 ****
 1  2  3  4  5  17  18  19  20  21  22  23  24  25 0
 3-21G
 ****
 26  28  29  30  38  39  40  41  42  43  44  45 0
 3-21G
 ****


