%nproc=1
%NoSave
%Mem=1900MB
#P OB98/GEN NMR

erre ene a

0 1
  C     -183.615     422.129    -498.282
  O     -184.163     421.985    -499.576
  P     -184.991     420.680    -499.986
  C     -187.206     421.686    -499.121
  O     -186.274     420.617    -499.010
  C     -188.430     421.240    -499.949
  O     -188.808     419.890    -499.531
  C     -189.653     422.159    -499.745
  O     -190.223     422.656    -500.957
  C     -190.581     421.307    -498.891
  O     -191.939     421.701    -498.941
  C     -190.239     419.894    -499.387
  N     -190.711     418.853    -498.478
  C     -191.022     417.616    -499.028
  O     -190.918     417.341    -500.227
  N     -191.532     416.675    -498.171
  C     -191.867     416.889    -496.871
  O     -192.417     416.035    -496.174
  C     -191.554     418.235    -496.341
  C     -190.983     419.130    -497.147
  O     -184.196     419.413    -500.052
  O     -185.665     421.099    -501.385
  H     -191.983     422.653    -498.763
  H     -186.249     421.880    -501.339
  H     -191.767     415.775    -498.564
  H     -191.822     418.429    -495.315
  H     -190.734     420.136    -496.786
  H     -190.675     419.708    -500.370
  H     -190.252     421.410    -497.847
  H     -189.377     423.064    -499.193
  H     -188.120     421.213    -500.998
  H     -186.718     422.529    -499.623
  H     -187.506     422.026    -498.121
  P     -191.037     424.033    -501.105
  C     -189.010     425.494    -501.834
  O     -190.016     425.246    -500.862
  O     -192.304     424.107    -500.302
  O     -191.356     424.123    -502.667
  H     -192.186     424.625    -502.805
  H     -188.148     425.957    -501.333
  H     -189.396     426.202    -502.581
  H     -188.687     424.576    -502.328
  H     -183.103     423.066    -498.214
  H     -182.926     421.332    -498.096
  H     -184.401     422.098    -497.556

 3  4  5  6  7  8  9  10  11  12  13  23  28  29  30  31  32 0
 6-311+G(2d,p)
 ****
 33  34 0
 6-311+G(2d,p)
 ****
 1  2  14  15  16  17  18  19  20  21  22  24  25  26  27 0
 3-21G
 ****
 35  36  37  38  39  40  41  42  43  44  45 0
 3-21G
 ****


