%nproc=1
%NoSave
%Mem=1900MB
#P OB98/GEN NMR

erre ene a

0 1
  C      805.957    -706.551    1600.513
  O      807.208    -706.963    1601.064
  P      807.299    -708.200    1602.081
  C      806.145    -708.796    1604.301
  O      806.229    -707.855    1603.238
  C      805.946    -708.050    1605.644
  O      804.798    -707.156    1605.504
  C      805.636    -708.919    1606.861
  O      806.779    -709.476    1607.507
  C      804.965    -707.887    1607.771
  O      805.996    -707.085    1608.391
  C      804.154    -707.046    1606.793
  N      799.667    -707.303    1609.215
  C      800.867    -706.769    1609.564
  N      802.019    -706.775    1608.878
  C      801.856    -707.351    1607.687
  C      800.700    -707.933    1607.188
  C      799.553    -707.919    1608.000
  N      798.354    -708.428    1607.623
  N      800.900    -708.437    1605.905
  C      802.175    -708.170    1605.644
  N      802.786    -707.503    1606.680
  O      808.678    -708.512    1602.558
  O      806.602    -709.416    1601.297
  H      806.642    -707.710    1608.813
  H      806.825    -710.273    1601.719
  H      800.898    -706.311    1610.556
  H      802.702    -708.416    1604.744
  H      804.141    -705.979    1607.055
  H      804.405    -708.353    1608.576
  H      804.897    -709.694    1606.607
  H      806.835    -707.413    1605.839
  H      807.105    -709.350    1604.362
  H      797.560    -708.240    1608.250
  H      798.217    -708.716    1606.643
  H      805.341    -709.495    1604.134
  P      806.529    -710.761    1608.454
  C      805.455    -711.077    1610.829
  O      805.705    -710.210    1609.713
  O      807.774    -711.526    1608.775
  O      805.452    -711.609    1607.630
  H      804.556    -711.186    1607.561
  H      805.029    -710.465    1611.617
  H      806.390    -711.517    1611.185
  H      804.718    -711.830    1610.532
  H      806.111    -705.715    1599.863
  H      805.294    -706.270    1601.304
  H      805.528    -707.359    1599.958

 3  4  5  6  7  8  9  10  11  12  22  25  29  30  31  32 0
 6-311+G(2d,p)
 ****
 33  36  37 0
 6-311+G(2d,p)
 ****
 1  2  13  14  15  16  17  18  19  20  21  23  24  26 0
 3-21G
 ****
 27  28  34  35  38  39  40  41  42  43  44  45  46  47  48 0
 3-21G
 ****


