%nproc=1
%NoSave
%Mem=1900MB
#P OB98/GEN NMR

erre ene a

0 1
  C       40.752      56.997    -149.771
  O       41.892      57.723    -149.357
  H       40.173      56.719    -148.885
  H       41.041      56.085    -150.300
  H       40.124      57.618    -150.416
  P       42.996      58.115    -150.449
  C       45.011      56.941    -151.547
  O       43.881      56.797    -150.694
  C       45.921      55.717    -151.449
  O       46.563      55.720    -150.145
  C       45.183      54.384    -151.613
  O       46.026      53.487    -152.339
  C       45.012      53.917    -150.181
  O       44.844      52.515    -150.106
  C       46.279      54.458    -149.510
  N       46.095      54.597    -148.066
  C       46.343      53.456    -147.293
  O       46.708      52.410    -147.827
  N       46.105      53.507    -145.942
  C       45.610      54.584    -145.415
  N       45.362      54.553    -144.078
  C       45.311      55.800    -146.196
  C       45.575      55.740    -147.502
  O       43.784      59.353    -150.173
  O       42.157      58.246    -151.806
  H       45.085      52.206    -149.209
  H       41.851      59.165    -151.923
  H       44.892      56.669    -145.710
  H       45.374      56.581    -148.158
  H       47.132      53.789    -149.695
  H       44.123      54.390    -149.742
  H       44.219      54.490    -152.126
  H       46.721      55.816    -152.195
  H       45.564      53.688    -143.587
  H       45.560      57.834    -151.230
  H       44.940      55.312    -143.564
  H       44.679      57.081    -152.579
  P       45.921      53.375    -153.938
  C       45.360      51.601    -155.696
  O       45.260      51.963    -154.323
  O       47.186      53.689    -154.671
  O       44.776      54.434    -154.319
  H       44.952      54.789    -155.211
  H       44.893      50.651    -155.849
  H       46.391      51.540    -155.975
  H       44.871      52.340    -156.296

 6  7  8  9  10  11  12  13  14  15  16  26  30  31  32  33  35 0
 6-311+G(2d,p)
 ****
 37  38 0
 6-311+G(2d,p)
 ****
 1  2  3  4  5  17  18  19  20  21  22  23  24  25 0
 3-21G
 ****
 27  28  29  34  36  39  40  41  42  43  44  45  46 0
 3-21G
 ****


