%nproc=1
%NoSave
%Mem=1900MB
#P OB98/GEN NMR

erre ene a

0 1
  C     -105.737     -10.530    -394.908
  O     -104.687     -11.189    -395.616
  P     -104.138     -10.542    -396.978
  C     -105.472     -12.273    -398.324
  O     -104.216     -11.638    -398.147
  C     -105.340     -13.701    -398.879
  O     -104.867     -13.671    -400.260
  C     -104.373     -14.597    -398.093
  O     -104.917     -15.919    -398.121
  C     -103.102     -14.520    -398.921
  O     -102.203     -15.577    -398.633
  C     -103.698     -14.510    -400.331
  N     -102.753     -14.028    -401.329
  C     -101.948     -14.979    -401.962
  O     -101.982     -16.158    -401.594
  N     -101.108     -14.568    -402.966
  C     -100.977     -13.298    -403.212
  N     -100.150     -12.934    -404.229
  C     -101.676     -12.251    -402.441
  C     -102.556     -12.684    -401.544
  O     -102.825      -9.830    -396.868
  O     -105.309      -9.517    -397.382
  H     -101.415     -15.496    -399.213
  H     -104.909      -8.731    -397.806
  H     -101.469     -11.206    -402.621
  H     -103.127     -11.998    -400.932
  H     -104.031     -15.512    -400.621
  H     -102.587     -13.571    -398.709
  H     -104.244     -14.285    -397.050
  H     -106.339     -14.155    -398.889
  H      -99.655     -13.656    -404.733
  H     -106.084     -11.677    -399.008
  H     -100.032     -11.968    -404.510
  H     -106.013     -12.276    -397.368
  P     -105.986     -16.346    -397.004
  C     -104.461     -18.182    -395.962
  O     -105.686     -17.868    -396.590
  O     -107.330     -16.503    -397.879
  O     -106.207     -15.374    -395.897
  H     -108.100     -16.373    -397.294
  H     -104.543     -19.173    -395.506
  H     -104.222     -17.459    -395.177
  H     -103.655     -18.196    -396.704
  H     -105.981     -11.090    -394.030
  H     -106.600     -10.458    -395.536
  H     -105.417      -9.548    -394.627

 3  4  5  6  7  8  9  10  11  12  13  23  27  28  29  30  32 0
 6-311+G(2d,p)
 ****
 34  35 0
 6-311+G(2d,p)
 ****
 1  2  14  15  16  17  18  19  20  21  22  24  25  26 0
 3-21G
 ****
 31  33  36  37  38  39  40  41  42  43  44  45  46 0
 3-21G
 ****


