%nproc=1
%NoSave
%Mem=1900MB
#P OB98/GEN NMR

erre ene a

0 1
  C     -238.884     -94.627    -450.528
  O     -239.520     -95.501    -451.444
  P     -239.592     -97.056    -451.063
  C     -241.666     -96.842    -449.495
  O     -240.288     -97.161    -449.622
  C     -242.411     -98.015    -448.857
  O     -242.234     -99.212    -449.651
  C     -241.912     -98.369    -447.464
  O     -242.428     -97.481    -446.486
  C     -242.416     -99.800    -447.309
  O     -243.789     -99.819    -446.886
  C     -242.283    -100.340    -448.749
  N     -241.128    -101.212    -448.916
  C     -241.276    -102.516    -448.442
  O     -242.304    -102.915    -447.895
  N     -240.188    -103.331    -448.585
  C     -238.973    -102.970    -449.089
  O     -238.014    -103.730    -449.138
  C     -238.864    -101.573    -449.547
  C     -239.925    -100.774    -449.435
  O     -238.067     -97.453    -450.780
  O     -240.206     -97.925    -452.109
  H     -244.087    -100.747    -446.949
  H     -237.902     -98.368    -451.082
  H     -240.282    -104.285    -448.271
  H     -237.914    -101.250    -449.950
  H     -239.863     -99.738    -449.753
  H     -243.182    -100.903    -449.024
  H     -241.844    -100.360    -446.568
  H     -240.814     -98.374    -447.449
  H     -243.482     -97.776    -448.835
  H     -242.082     -96.631    -450.484
  H     -241.769     -95.940    -448.881
  P     -241.693     -97.468    -445.058
  C     -239.505     -96.195    -445.706
  O     -240.128     -97.421    -445.397
  O     -241.972     -98.963    -444.566
  O     -242.208     -96.403    -444.147
  H     -242.005     -99.594    -445.302
  H     -239.936     -95.372    -445.128
  H     -239.621     -95.988    -446.772
  H     -238.437     -96.270    -445.472
  H     -238.911     -93.628    -450.911
  H     -237.867     -94.930    -450.393
  H     -239.394     -94.662    -449.588

 3  4  5  6  7  8  9  10  11  12  13  23  28  29  30  31  32 0
 6-311+G(2d,p)
 ****
 33  34 0
 6-311+G(2d,p)
 ****
 1  2  14  15  16  17  18  19  20  21  22  24  25  26 0
 3-21G
 ****
 27  35  36  37  38  39  40  41  42  43  44  45 0
 3-21G
 ****


