%nproc=1
%NoSave
%Mem=1900MB
#P OB98/GEN NMR

erre ene a

0 1
  C     -447.342    -247.561    -486.025
  O     -447.600    -248.352    -487.165
  H     -447.599    -248.144    -485.135
  H     -447.967    -246.669    -486.051
  H     -446.288    -247.280    -485.958
  P     -447.037    -247.862    -488.587
  C     -446.274    -250.064    -489.693
  O     -445.877    -248.887    -489.001
  C     -446.462    -251.233    -488.717
  O     -447.574    -250.937    -487.827
  C     -446.755    -252.587    -489.419
  O     -446.195    -253.611    -488.591
  C     -448.268    -252.622    -489.363
  O     -448.762    -253.925    -489.569
  C     -448.525    -252.022    -487.978
  N     -449.905    -251.552    -487.810
  C     -450.902    -252.519    -487.872
  O     -450.673    -253.712    -488.080
  N     -452.187    -252.079    -487.732
  C     -452.565    -250.764    -487.613
  O     -453.742    -250.411    -487.520
  C     -451.466    -249.783    -487.594
  C     -450.220    -250.203    -487.695
  O     -446.655    -246.419    -488.669
  O     -448.203    -248.228    -489.631
  H     -448.327    -254.555    -488.957
  H     -448.208    -247.593    -490.363
  H     -452.927    -252.760    -487.764
  H     -451.733    -248.732    -487.505
  H     -449.385    -249.509    -487.687
  H     -448.320    -252.751    -487.191
  H     -448.701    -251.975    -490.141
  H     -446.357    -252.647    -490.425
  H     -445.556    -251.304    -488.088
  H     -445.499    -250.310    -490.420
  H     -447.220    -249.870    -490.219
  P     -444.648    -253.643    -488.197
  C     -445.022    -254.604    -485.839
  O     -444.498    -253.517    -486.607
  O     -443.794    -252.680    -488.956
  O     -444.177    -255.149    -488.501
  H     -443.226    -255.164    -488.723
  H     -444.867    -254.412    -484.798
  H     -444.521    -255.509    -486.114
  H     -446.070    -254.704    -486.031

 6  7  8  9  10  11  12  13  14  15  16  26  31  32  33  34  35 0
 6-311+G(2d,p)
 ****
 36  37 0
 6-311+G(2d,p)
 ****
 1  2  3  4  5  17  18  19  20  21  22  23  24  25 0
 3-21G
 ****
 27  28  29  30  38  39  40  41  42  43  44  45 0
 3-21G
 ****


