%nproc=1
%NoSave
%Mem=1900MB
#P OB98/GEN NMR

erre ene a

0 1
  C      308.622    -417.559    -645.692
  O      307.363    -417.705    -646.319
  H      309.275    -418.384    -646.005
  H      308.514    -417.588    -644.606
  H      309.084    -416.610    -645.987
  P      306.231    -416.647    -645.900
  C      305.403    -416.091    -648.319
  O      305.149    -416.767    -647.089
  C      304.482    -416.645    -649.402
  O      304.881    -417.975    -649.780
  C      303.023    -416.756    -648.991
  O      302.343    -415.510    -649.031
  C      302.503    -417.725    -650.042
  O      302.335    -417.017    -651.294
  C      303.678    -418.725    -650.122
  N      303.508    -419.868    -649.231
  C      302.388    -420.683    -649.459
  O      301.591    -420.422    -650.364
  N      302.180    -421.758    -648.631
  C      303.020    -422.018    -647.670
  N      302.745    -423.094    -646.865
  C      304.215    -421.199    -647.413
  C      304.407    -420.155    -648.217
  O      306.914    -415.224    -646.190
  O      305.671    -416.792    -644.520
  H      301.600    -416.385    -651.166
  H      306.240    -414.504    -646.087
  H      304.877    -421.458    -646.581
  H      305.255    -419.513    -648.086
  H      303.810    -419.099    -651.148
  H      301.543    -418.160    -649.790
  H      302.916    -417.219    -648.002
  H      304.599    -416.011    -650.305
  H      301.882    -423.592    -647.043
  H      306.455    -416.254    -648.591
  H      303.235    -423.265    -645.994
  H      305.229    -415.022    -648.204
  P      301.717    -414.953    -647.649
  C      301.382    -412.537    -648.553
  O      300.776    -413.710    -648.028
  O      302.972    -414.255    -646.928
  O      301.079    -415.990    -646.785
  H      302.971    -414.417    -645.974
  H      300.628    -411.805    -648.754
  H      301.897    -412.777    -649.460
  H      302.078    -412.146    -647.841

 6  7  8  9  10  11  12  13  14  15  16  26  30  31  32  33  35 0
 6-311+G(2d,p)
 ****
 37  38 0
 6-311+G(2d,p)
 ****
 1  2  3  4  5  17  18  19  20  21  22  23  24  25 0
 3-21G
 ****
 27  28  29  34  36  39  40  41  42  43  44  45  46 0
 3-21G
 ****


