%nproc=1
%NoSave
%Mem=1900MB
#P OB98/GEN NMR

erre ene a

0 1
  C     1528.684    2145.004    -895.768
  O     1528.022    2146.015    -896.478
  H     1528.150    2144.078    -895.808
  H     1529.679    2144.866    -896.238
  H     1528.822    2145.335    -894.730
  P     1526.544    2146.420    -895.978
  C     1526.828    2148.889    -896.738
  O     1526.073    2147.689    -896.878
  C     1525.903    2150.070    -896.948
  O     1524.672    2149.877    -896.218
  C     1526.454    2151.414    -896.478
  O     1527.341    2151.996    -897.408
  C     1525.175    2152.216    -896.338
  O     1524.741    2152.663    -897.608
  C     1524.208    2151.188    -895.728
  N     1522.158    2153.384    -891.606
  C     1521.995    2153.635    -892.908
  N     1522.586    2153.026    -893.986
  C     1523.400    2152.010    -893.539
  C     1523.653    2151.634    -892.217
  C     1522.977    2152.362    -891.244
  N     1523.127    2152.125    -889.883
  N     1524.571    2150.618    -892.155
  C     1524.820    2150.358    -893.440
  N     1524.166    2151.187    -894.302
  O     1526.798    2147.070    -894.544
  O     1525.550    2145.304    -895.928
  H     1525.456    2153.233    -897.968
  H     1525.973    2147.038    -894.004
  H     1521.322    2154.442    -893.209
  H     1525.528    2149.537    -893.768
  H     1523.165    2151.309    -896.098
  H     1525.336    2153.127    -895.698
  H     1526.961    2151.287    -895.488
  H     1525.617    2150.127    -898.018
  H     1527.618    2148.908    -897.548
  H     1522.707    2152.807    -889.256
  H     1523.835    2151.477    -889.587
  H     1527.288    2148.923    -895.768
  P     1528.734    2152.588    -896.848
  C     1529.774    2151.982    -899.208
  O     1529.579    2152.949    -898.188
  O     1529.494    2151.251    -896.328
  O     1528.609    2153.663    -895.808
  H     1530.120    2151.469    -895.608
  H     1530.351    2152.411    -900.000
  H     1528.824    2151.668    -899.588
  H     1530.293    2151.138    -898.804

 6  7  8  9  10  11  12  13  14  15  25  28  32  33  34  35 0
 6-311+G(2d,p)
 ****
 36  39  40 0
 6-311+G(2d,p)
 ****
 1  2  3  4  5  16  17  18  19  20  21  22  23  24 0
 3-21G
 ****
 26  27  29  30  31  37  38  41  42  43  44  45  46  47 0
 3-21G
 ****
 48 0
 3-21G
 ****


