%nproc=1
%NoSave
%Mem=1900MB
#P OB98/GEN NMR

erre ene a

0 1
  C     -402.208     -16.385    -772.182
  O     -403.511     -16.846    -771.813
  P     -403.760     -18.439    -771.788
  C     -406.188     -18.741    -772.714
  O     -405.336     -18.701    -771.576
  C     -407.640     -18.518    -772.308
  O     -408.093     -19.505    -771.334
  C     -407.900     -17.163    -771.644
  O     -408.049     -16.142    -772.620
  C     -409.211     -17.431    -770.939
  O     -410.299     -17.333    -771.880
  C     -409.058     -18.880    -770.460
  N     -409.803     -21.211    -765.956
  C     -410.456     -21.288    -767.155
  N     -410.207     -20.618    -768.287
  C     -409.143     -19.822    -768.151
  C     -408.382     -19.638    -766.997
  C     -408.745     -20.374    -765.874
  N     -408.046     -20.298    -764.679
  N     -407.381     -18.720    -767.236
  C     -407.526     -18.358    -768.506
  N     -408.590     -18.992    -769.087
  O     -403.115     -18.879    -770.384
  O     -403.143     -19.176    -772.928
  H     -411.104     -17.662    -771.438
  H     -402.726     -19.759    -770.469
  H     -411.319     -21.992    -767.174
  H     -406.899     -17.658    -769.028
  H     -409.990     -19.438    -770.545
  H     -409.424     -16.715    -770.147
  H     -407.109     -16.933    -770.921
  H     -408.269     -18.625    -773.216
  H     -406.078     -19.709    -773.223
  H     -408.379     -20.896    -763.912
  H     -407.255     -19.692    -764.608
  H     -405.860     -17.982    -773.430
  P     -407.024     -14.910    -772.546
  C     -408.750     -13.401    -773.791
  O     -407.434     -13.924    -773.740
  O     -405.633     -15.560    -773.040
  O     -406.886     -14.273    -771.200
  H     -404.882     -15.104    -772.611
  H     -408.760     -12.538    -774.468
  H     -409.076     -13.080    -772.788
  H     -409.433     -14.165    -774.161
  H     -402.187     -15.316    -772.156
  H     -401.977     -16.722    -773.171
  H     -401.485     -16.773    -771.495

 3  4  5  6  7  8  9  10  11  12  22  25  29  30  31  32 0
 6-311+G(2d,p)
 ****
 33  36  37 0
 6-311+G(2d,p)
 ****
 1  2  13  14  15  16  17  18  19  20  21  23  24  26 0
 3-21G
 ****
 27  28  34  35  38  39  40  41  42  43  44  45  46  47  48 0
 3-21G
 ****


