%nproc=1
%NoSave
%Mem=1900MB
#P OB98/GEN NMR

erre ene a

0 1
  C      418.846     331.111     196.543
  O      420.183     331.542     196.352
  P      421.186     331.737     197.597
  C      422.741     329.737     197.070
  O      421.741     330.269     197.924
  C      423.903     329.181     197.889
  O      424.388     330.226     198.781
  C      423.545     327.961     198.758
  O      424.698     327.112     198.788
  C      423.303     328.580     200.123
  O      423.436     327.643     201.181
  C      424.348     329.699     200.119
  N      424.034     330.758     201.084
  C      424.350     330.519     202.427
  O      424.844     329.453     202.786
  N      424.089     331.512     203.339
  C      423.494     332.602     202.970
  N      423.309     333.575     203.902
  C      423.044     332.843     201.581
  C      423.366     331.895     200.703
  O      420.606     332.458     198.760
  O      422.469     332.447     196.962
  H      422.954     327.992     201.954
  H      422.377     333.431     196.908
  H      422.523     333.754     201.324
  H      423.104     331.998     199.655
  H      425.343     329.298     200.330
  H      422.287     328.992     200.159
  H      422.690     327.402     198.369
  H      424.723     328.933     197.202
  H      423.781     333.445     204.788
  H      423.113     330.542     196.428
  H      423.163     334.542     203.629
  H      422.304     328.958     196.427
  P      424.471     325.537     198.995
  C      425.126     324.940     196.552
  O      424.135     324.892     197.561
  O      423.030     325.504     199.715
  O      425.479     324.823     199.840
  H      422.958     324.690     200.240
  H      424.728     324.453     195.653
  H      426.021     324.407     196.867
  H      425.363     325.981     196.307
  H      418.353     331.046     195.595
  H      418.331     331.812     197.166
  H      418.845     330.149     197.012

 3  4  5  6  7  8  9  10  11  12  13  23  27  28  29  30  32 0
 6-311+G(2d,p)
 ****
 34  35 0
 6-311+G(2d,p)
 ****
 1  2  14  15  16  17  18  19  20  21  22  24  25  26 0
 3-21G
 ****
 31  33  36  37  38  39  40  41  42  43  44  45  46 0
 3-21G
 ****


