%nproc=1
%NoSave
%Mem=1900MB
#P OB98/GEN NMR

erre ene a

0 1
  C      716.588    -892.662    -805.438
  O      715.730    -893.432    -804.627
  H      716.992    -893.302    -806.226
  H      717.420    -892.252    -804.850
  H      716.032    -891.842    -805.911
  P      715.052    -892.672    -803.383
  C      716.468    -894.032    -801.708
  O      715.159    -893.722    -802.169
  C      716.494    -895.392    -801.021
  O      715.790    -895.292    -799.759
  C      715.827    -896.512    -801.843
  O      716.568    -897.722    -801.672
  C      714.456    -896.642    -801.207
  O      713.891    -897.962    -801.395
  C      714.754    -896.302    -799.744
  N      710.087    -897.592    -798.117
  C      711.083    -898.322    -798.652
  N      712.320    -897.892    -799.048
  C      712.461    -896.582    -798.780
  C      711.554    -895.712    -798.243
  C      710.295    -896.262    -797.905
  N      709.268    -895.522    -797.382
  N      712.062    -894.422    -798.167
  C      713.290    -894.532    -798.667
  N      713.576    -895.812    -799.052
  O      713.688    -892.112    -803.621
  O      716.172    -891.602    -803.003
  H      713.646    -898.062    -802.318
  H      717.077    -891.992    -803.016
  H      710.884    -899.372    -798.795
  H      714.000    -893.712    -798.758
  H      715.134    -897.172    -799.168
  H      713.764    -895.902    -801.640
  H      715.760    -896.262    -802.905
  H      717.534    -895.652    -800.772
  H      716.822    -893.262    -801.003
  H      708.400    -895.992    -797.156
  H      709.401    -894.522    -797.191
  H      717.147    -894.042    -802.569
  P      717.841    -897.992    -802.609
  C      716.430    -899.102    -804.461
  O      717.529    -899.242    -803.551
  O      719.166    -898.002    -801.925
  O      717.755    -896.752    -803.640
  H      718.674    -896.452    -803.855
  H      716.324    -900.000    -805.033
  H      716.615    -898.279    -805.120
  H      715.531    -898.921    -803.909

 6  7  8  9  10  11  12  13  14  15  25  28  32  33  34  35 0
 6-311+G(2d,p)
 ****
 36  39  40 0
 6-311+G(2d,p)
 ****
 1  2  3  4  5  16  17  18  19  20  21  22  23  24 0
 3-21G
 ****
 26  27  29  30  31  37  38  41  42  43  44  45  46  47 0
 3-21G
 ****
 48 0
 3-21G
 ****


