%nproc=1
%NoSave
%Mem=1900MB
#P OB98/GEN NMR

erre ene a

0 1
  C     -428.537     279.922     207.594
  O     -427.408     280.721     207.284
  H     -428.223     278.901     207.832
  H     -429.045     280.347     208.466
  H     -429.235     279.910     206.747
  P     -426.504     280.243     206.046
  C     -427.465     282.118     204.519
  O     -427.297     280.722     204.734
  C     -426.661     282.536     203.286
  O     -427.099     281.789     202.126
  C     -426.826     284.010     202.918
  O     -425.985     284.856     203.688
  C     -426.395     283.981     201.460
  O     -424.961     283.899     201.373
  C     -427.035     282.672     200.970
  N     -429.745     283.830     196.776
  C     -428.419     283.682     196.977
  N     -427.771     283.350     198.124
  C     -428.650     283.154     199.121
  C     -430.034     283.263     199.057
  C     -430.586     283.626     197.818
  N     -431.935     283.807     197.615
  N     -430.598     283.005     200.301
  C     -429.569     282.735     201.085
  N     -428.368     282.840     200.428
  O     -426.696     278.654     206.021
  O     -425.066     280.656     206.089
  H     -424.674     283.212     202.008
  H     -426.019     278.236     205.454
  H     -427.781     283.854     196.112
  H     -429.643     282.462     202.130
  H     -426.432     282.168     200.200
  H     -426.699     284.881     200.913
  H     -427.874     284.323     202.974
  H     -425.602     282.290     203.460
  H     -427.105     282.662     205.394
  H     -432.221     284.208     196.732
  H     -432.556     283.796     198.412
  H     -428.527     282.338     204.365
  P     -426.386     286.407     203.774
  C     -427.437     286.077     206.135
  O     -427.638     286.500     204.786
  O     -427.047     286.692     202.347
  O     -425.247     287.331     204.065
  H     -426.884     287.608     202.063
  H     -428.347     286.195     206.685
  H     -426.669     286.671     206.585
  H     -427.144     285.048     206.146

 6  7  8  9  10  11  12  13  14  15  25  28  32  33  34  35 0
 6-311+G(2d,p)
 ****
 36  39  40 0
 6-311+G(2d,p)
 ****
 1  2  3  4  5  16  17  18  19  20  21  22  23  24 0
 3-21G
 ****
 26  27  29  30  31  37  38  41  42  43  44  45  46  47 0
 3-21G
 ****
 48 0
 3-21G
 ****


