%nproc=1
%NoSave
%Mem=1900MB
#P OB98/GEN NMR

erre ene a

0 1
  C     -337.410    -389.388    -676.385
  O     -337.478    -390.649    -675.749
  H     -337.055    -388.651    -675.663
  H     -338.401    -389.088    -676.742
  H     -336.708    -389.432    -677.222
  P     -338.017    -391.872    -676.636
  C     -336.407    -393.388    -675.305
  O     -337.750    -393.170    -675.723
  C     -336.377    -394.016    -673.911
  O     -336.799    -393.023    -672.945
  C     -337.305    -395.224    -673.773
  O     -336.674    -396.208    -672.948
  C     -338.518    -394.666    -673.053
  O     -339.227    -395.662    -672.325
  C     -337.888    -393.576    -672.186
  N     -341.483    -392.197    -668.835
  C     -340.601    -393.214    -668.844
  N     -339.658    -393.500    -669.768
  C     -339.657    -392.574    -670.748
  C     -340.501    -391.486    -670.873
  C     -341.458    -391.308    -669.862
  N     -342.380    -390.290    -669.855
  N     -340.219    -390.790    -672.038
  C     -339.216    -391.444    -672.595
  N     -338.853    -392.541    -671.856
  O     -337.484    -391.949    -678.026
  O     -339.601    -391.687    -676.517
  H     -339.752    -396.192    -672.957
  H     -339.870    -391.488    -675.603
  H     -340.651    -393.894    -667.995
  H     -338.727    -391.174    -673.526
  H     -337.494    -393.967    -671.243
  H     -339.209    -394.225    -673.786
  H     -337.569    -395.664    -674.734
  H     -335.340    -394.278    -673.666
  H     -335.862    -392.434    -675.287
  H     -343.023    -390.229    -669.084
  H     -342.364    -389.608    -670.606
  H     -335.932    -394.048    -676.032
  P     -336.415    -397.666    -673.557
  C     -334.211    -398.141    -672.301
  O     -335.568    -398.523    -672.496
  O     -335.910    -397.704    -674.964
  O     -337.866    -398.343    -673.460
  H     -338.006    -398.902    -674.247
  H     -333.760    -398.785    -671.575
  H     -334.172    -397.130    -671.954
  H     -333.681    -398.221    -673.227

 6  7  8  9  10  11  12  13  14  15  25  28  32  33  34  35 0
 6-311+G(2d,p)
 ****
 36  39  40 0
 6-311+G(2d,p)
 ****
 1  2  3  4  5  16  17  18  19  20  21  22  23  24 0
 3-21G
 ****
 26  27  29  30  31  37  38  41  42  43  44  45  46  47 0
 3-21G
 ****
 48 0
 3-21G
 ****


