%nproc=1
%NoSave
%Mem=1900MB
#P OB98/GEN NMR

erre ene a

0 1
  C       -8.781      29.200      20.936
  O       -8.829      27.786      20.977
  H       -7.862      29.506      20.430
  H       -8.775      29.599      21.954
  H       -9.639      29.596      20.386
  P      -10.207      27.134      21.470
  C       -9.392      26.412      23.856
  O      -10.240      27.243      23.075
  C       -9.570      26.728      25.338
  O       -9.315      28.123      25.599
  C      -10.983      26.518      25.856
  O      -11.319      25.154      25.980
  C      -10.906      27.248      27.190
  O      -10.364      26.413      28.220
  C       -9.943      28.417      26.870
  N      -10.630      29.695      26.865
  C      -10.726      30.328      28.111
  O      -10.227      29.807      29.109
  N      -11.414      31.510      28.196
  C      -11.982      32.003      27.140
  N      -12.677      33.161      27.299
  C      -11.907      31.367      25.809
  C      -11.223      30.225      25.744
  O       -9.962      25.575      21.215
  O      -11.428      27.677      20.807
  H      -10.250      26.985      29.007
  H       -9.117      25.249      21.566
  H      -12.386      31.825      24.956
  H      -11.117      29.691      24.806
  H       -9.136      28.465      27.612
  H      -11.893      27.572      27.529
  H      -11.702      27.049      25.218
  H       -8.844      26.129      25.904
  H      -12.749      33.533      28.239
  H       -8.346      26.546      23.562
  H      -13.223      33.593      26.569
  H       -9.665      25.373      23.651
  P      -12.843      24.666      25.952
  C      -12.421      23.250      28.063
  O      -13.226      24.257      27.460
  O      -13.162      23.624      24.934
  O      -13.658      26.033      25.763
  H      -13.521      26.691      26.466
  H      -12.769      23.064      29.058
  H      -11.403      23.579      28.096
  H      -12.486      22.350      27.488

 6  7  8  9  10  11  12  13  14  15  16  26  30  31  32  33  35 0
 6-311+G(2d,p)
 ****
 37  38 0
 6-311+G(2d,p)
 ****
 1  2  3  4  5  17  18  19  20  21  22  23  24  25 0
 3-21G
 ****
 27  28  29  34  36  39  40  41  42  43  44  45  46 0
 3-21G
 ****


