%nproc=1
%NoSave
%Mem=1900MB
#P OB98/GEN NMR

erre ene a

0 1
  C      200.290     771.664     356.463
  O      199.337     772.611     356.006
  P      197.793     772.338     356.359
  C      197.038     774.821     356.480
  O      196.986     773.597     355.761
  C      196.935     775.997     355.513
  O      198.090     776.037     354.650
  C      195.730     775.970     354.591
  O      194.559     776.442     355.212
  C      196.178     776.926     353.494
  O      196.002     778.281     353.937
  C      197.679     776.603     353.377
  N      200.017     776.001     348.877
  C      199.838     777.084     349.647
  N      199.180     777.165     350.834
  C      198.669     775.969     351.176
  C      198.756     774.786     350.482
  C      199.478     774.821     349.268
  N      199.697     773.705     348.487
  N      198.099     773.772     351.145
  C      197.650     774.333     352.238
  N      197.966     775.655     352.319
  O      197.746     772.578     357.939
  O      197.290     770.991     355.986
  H      195.058     778.389     354.145
  H      196.976     772.112     358.324
  H      200.258     778.013     349.283
  H      197.090     773.812     353.020
  H      198.284     777.498     353.199
  H      195.614     776.807     352.576
  H      195.587     774.965     354.166
  H      196.939     776.925     356.114
  H      197.981     774.884     357.020
  H      200.373     773.768     347.746
  H      199.468     772.795     348.885
  H      196.210     774.851     357.195
  P      193.160     776.068     354.517
  C      192.029     776.697     356.778
  O      192.036     776.843     355.374
  O      192.948     774.534     354.920
  O      193.143     776.291     353.036
  H      192.385     774.089     354.255
  H      191.434     777.506     357.209
  H      193.039     776.755     357.186
  H      191.580     775.737     357.048
  H      201.270     771.969     356.159
  H      200.069     770.705     356.044
  H      200.250     771.604     357.531

 3  4  5  6  7  8  9  10  11  12  22  25  29  30  31  32 0
 6-311+G(2d,p)
 ****
 33  36  37 0
 6-311+G(2d,p)
 ****
 1  2  13  14  15  16  17  18  19  20  21  23  24  26 0
 3-21G
 ****
 27  28  34  35  38  39  40  41  42  43  44  45  46  47  48 0
 3-21G
 ****


