%nproc=1
%NoSave
%Mem=1900MB
#P OB98/GEN NMR

erre ene a

0 1
  C      -16.571     -62.958    -220.636
  O      -17.724     -63.665    -220.173
  P      -17.858     -65.198    -220.622
  C      -17.469     -66.173    -218.246
  O      -17.019     -66.096    -219.592
  C      -17.328     -67.603    -217.726
  O      -18.036     -68.546    -218.559
  C      -15.888     -68.097    -217.695
  O      -15.175     -67.523    -216.614
  C      -16.105     -69.603    -217.585
  O      -16.413     -69.968    -216.229
  C      -17.342     -69.814    -218.473
  N      -15.687     -73.790    -221.233
  C      -15.907     -73.640    -219.909
  N      -16.346     -72.547    -219.251
  C      -16.576     -71.537    -220.106
  C      -16.402     -71.544    -221.480
  C      -15.929     -72.738    -222.050
  N      -15.691     -72.887    -223.397
  N      -16.738     -70.320    -222.019
  C      -17.087     -69.580    -220.986
  N      -17.017     -70.276    -219.810
  O      -17.001     -65.265    -221.971
  O      -19.269     -65.637    -220.842
  H      -16.788     -70.872    -216.249
  H      -17.594     -65.361    -222.738
  H      -15.702     -74.513    -219.295
  H      -17.396     -68.544    -221.039
  H      -18.041     -70.540    -218.043
  H      -15.231     -70.185    -217.890
  H      -15.386     -67.859    -218.641
  H      -17.757     -67.642    -216.715
  H      -18.512     -65.855    -218.177
  H      -15.278     -73.751    -223.712
  H      -15.786     -72.084    -224.002
  H      -16.886     -65.472    -217.639
  P      -13.573     -67.584    -216.659
  C      -13.657     -65.088    -216.057
  O      -13.144     -66.061    -216.948
  O      -13.317     -68.293    -218.067
  O      -12.933     -68.226    -215.477
  H      -13.874     -67.912    -218.771
  H      -13.262     -64.110    -216.345
  H      -13.346     -65.311    -215.033
  H      -14.748     -65.063    -216.120
  H      -16.599     -61.953    -220.271
  H      -16.564     -62.949    -221.706
  H      -15.687     -63.444    -220.278

 3  4  5  6  7  8  9  10  11  12  22  25  29  30  31  32 0
 6-311+G(2d,p)
 ****
 33  36  37 0
 6-311+G(2d,p)
 ****
 1  2  13  14  15  16  17  18  19  20  21  23  24  26 0
 3-21G
 ****
 27  28  34  35  38  39  40  41  42  43  44  45  46  47  48 0
 3-21G
 ****


