%nproc=1
%NoSave
%Mem=1900MB
#P OB98/GEN NMR

erre ene a

0 1
  C     -245.519    -120.654      99.705
  O     -246.088    -119.366      99.658
  P     -245.154    -118.076      99.840
  C     -245.340    -117.071      97.478
  O     -245.697    -116.934      98.855
  C     -246.553    -116.827      96.590
  O     -247.615    -117.747      96.918
  C     -247.162    -115.439      96.734
  O     -246.384    -114.475      96.051
  C     -248.550    -115.660      96.148
  O     -248.510    -115.596      94.714
  C     -248.865    -117.088      96.613
  N     -253.598    -118.119      98.219
  C     -253.068    -118.023      96.982
  N     -251.803    -117.705      96.630
  C     -251.064    -117.450      97.725
  C     -251.472    -117.472      99.052
  C     -252.809    -117.851      99.289
  N     -253.344    -118.008     100.550
  N     -250.430    -117.116      99.885
  C     -249.417    -116.878      99.081
  N     -249.737    -117.128      97.775
  O     -243.686    -118.333      99.761
  O     -245.554    -117.520     101.285
  H     -249.396    -115.829      94.384
  H     -244.770    -117.525     101.868
  H     -253.745    -118.239      96.167
  H     -248.432    -116.537      99.393
  H     -249.352    -117.677      95.825
  H     -249.279    -114.910      96.486
  H     -247.258    -115.182      97.795
  H     -246.261    -117.013      95.548
  H     -244.959    -118.087      97.320
  H     -254.260    -118.421     100.608
  H     -252.703    -118.112     101.337
  H     -244.547    -116.356      97.239
  P     -246.709    -112.912      96.238
  C     -246.350    -112.322      98.706
  O     -245.768    -112.378      97.420
  O     -248.158    -112.565      96.366
  O     -246.061    -112.239      94.939
  H     -246.585    -111.455      94.684
  H     -246.994    -111.442      98.783
  H     -245.552    -112.245      99.452
  H     -246.933    -113.229      98.910
  H     -246.285    -121.388      99.566
  H     -245.051    -120.803     100.656
  H     -244.788    -120.750      98.929

 3  4  5  6  7  8  9  10  11  12  22  25  29  30  31  32 0
 6-311+G(2d,p)
 ****
 33  36  37 0
 6-311+G(2d,p)
 ****
 1  2  13  14  15  16  17  18  19  20  21  23  24  26 0
 3-21G
 ****
 27  28  34  35  38  39  40  41  42  43  44  45  46  47  48 0
 3-21G
 ****


