%nproc=1
%NoSave
%Mem=1900MB
#P OB98/GEN NMR

erre ene a

0 1
  C       16.645     -95.111     -29.172
  O       15.777     -94.597     -28.155
  P       15.145     -93.143     -28.430
  C       13.415     -92.742     -26.534
  O       14.733     -92.505     -27.014
  C       13.342     -93.998     -25.663
  O       14.438     -93.985     -24.715
  C       12.050     -94.144     -24.851
  O       11.693     -95.533     -24.802
  C       12.466     -93.731     -23.452
  O       11.602     -94.266     -22.453
  C       13.893     -94.273     -23.418
  N       14.789     -94.037     -18.447
  C       13.948     -94.874     -19.153
  N       13.228     -95.757     -18.428
  N       13.824     -94.849     -20.454
  C       14.630     -93.937     -21.051
  C       15.512     -93.059     -20.463
  C       15.605     -93.071     -19.019
  O       16.293     -92.318     -18.332
  N       16.151     -92.286     -21.401
  C       15.651     -92.690     -22.551
  N       14.719     -93.684     -22.390
  O       13.745     -93.481     -29.127
  O       15.991     -92.275     -29.298
  H       12.037     -94.124     -21.591
  H       13.690     -93.036     -29.995
  H       14.830     -94.085     -17.444
  H       15.906     -92.285     -23.520
  H       13.903     -95.361     -23.281
  H       12.446     -92.638     -23.373
  H       13.324     -95.874     -17.431
  H       11.208     -93.556     -25.231
  H       12.641     -96.410     -18.932
  H       13.485     -94.872     -26.309
  H       12.736     -92.857     -27.384
  H       13.088     -91.867     -25.963
  P       10.248     -95.920     -25.381
  C       10.892     -98.435     -25.538
  O       10.023     -97.459     -24.999
  O       10.481     -95.952     -26.964
  O        9.159     -94.979     -24.985
  H        9.648     -95.756     -27.432
  H       11.766     -97.989     -26.019
  H       10.346     -99.028     -26.276
  H       11.230     -99.091     -24.733
  H       17.002     -96.077     -28.881
  H       17.475     -94.448     -29.301
  H       16.106     -95.192     -30.093

 3  4  5  6  7  8  9  10  11  12  23  26  30  31  33  0
 6-311+G(2d,p)
 ****
 35  36  37  38 0
 6-311+G(2d,p)
 ****
 1  2  13  14  15  16  17  18  19  20  21  22  24  25  27  28  29 0
 3-21G
 ****
 32  34  39  40  41  42  43  44  45  46  47  48  49 0
 3-21G
 ****


