%nproc=1
%NoSave
%Mem=1900MB
#P OB98/GEN NMR

erre ene a

0 1
  C       37.149     -54.885      61.550
  O       37.449     -53.746      60.768
  H       38.024     -55.182      62.134
  H       36.336     -54.636      62.236
  H       36.830     -55.713      60.908
  P       38.607     -53.915      59.668
  C       40.575     -52.648      60.791
  O       39.995     -53.906      60.476
  C       41.805     -52.845      61.675
  O       41.413     -53.341      62.972
  C       42.818     -53.854      61.140
  O       43.648     -53.285      60.137
  C       43.607     -54.160      62.404
  O       44.551     -53.101      62.658
  C       42.506     -54.151      63.478
  N       43.025     -58.210      66.554
  C       43.633     -57.004      66.540
  N       43.428     -55.966      65.703
  C       42.463     -56.260      64.815
  C       41.736     -57.435      64.716
  C       42.050     -58.449      65.638
  N       41.466     -59.707      65.598
  N       40.840     -57.371      63.667
  C       41.038     -56.185      63.130
  N       42.003     -55.475      63.792
  O       38.592     -52.498      58.917
  O       38.418     -55.049      58.716
  H       44.925     -53.265      63.544
  H       38.064     -52.573      58.100
  H       44.393     -56.852      67.302
  H       40.513     -55.803      62.264
  H       42.845     -53.690      64.413
  H       44.176     -55.093      62.342
  H       42.330     -54.771      60.791
  H       42.273     -51.863      61.823
  H       39.843     -52.031      61.325
  H       42.067     -60.444      65.956
  H       40.959     -59.905      64.743
  H       40.852     -52.146      59.861
  P       43.998     -54.192      58.859
  C       46.101     -55.162      60.014
  O       44.846     -55.443      59.406
  O       45.084     -53.307      58.083
  O       42.844     -54.528      57.977
  H       44.786     -53.150      57.167
  H       46.557     -56.077      60.331
  H       45.952     -54.525      60.861
  H       46.738     -54.672      59.307

 6  7  8  9  10  11  12  13  14  15  25  28  32  33  34  35 0
 6-311+G(2d,p)
 ****
 36  39  40 0
 6-311+G(2d,p)
 ****
 1  2  3  4  5  16  17  18  19  20  21  22  23  24 0
 3-21G
 ****
 26  27  29  30  31  37  38  41  42  43  44  45  46  47  48 0
 3-21G
 ****


