%nproc=1
%NoSave
%Mem=1900MB
#P OB98/GEN NMR

erre ene a

0 1
  C      478.675     579.006     277.646
  O      478.770     578.573     276.300
  H      478.276     578.190     278.251
  H      477.997     579.863     277.720
  H      479.663     579.280     278.026
  P      479.244     579.676     275.230
  C      477.459     578.580     273.678
  O      478.791     579.050     273.829
  C      477.293     577.907     272.320
  O      477.693     578.806     271.262
  C      478.159     576.655     272.133
  O      477.619     575.508     272.776
  C      478.125     576.531     270.622
  O      476.859     575.993     270.202
  C      478.284     578.009     270.191
  N      479.670     578.394     269.965
  C      480.282     577.930     268.798
  O      479.653     577.199     268.017
  N      481.591     578.258     268.545
  C      482.243     579.000     269.383
  N      483.541     579.291     269.105
  C      481.643     579.544     270.624
  C      480.368     579.203     270.846
  O      480.840     579.504     275.189
  O      478.777     581.070     275.483
  H      476.792     575.099     270.586
  H      481.213     580.058     274.463
  H      482.219     580.147     271.300
  H      479.858     579.556     271.740
  H      477.710     578.208     269.277
  H      478.905     575.858     270.240
  H      479.197     576.826     272.452
  H      476.228     577.678     272.177
  H      483.952     578.864     268.277
  H      476.781     579.434     273.759
  H      484.171     579.709     269.778
  H      477.219     577.861     274.462
  P      478.638     574.464     273.423
  C      477.838     572.588     271.809
  O      478.034     572.997     273.154
  O      478.432     574.659     274.994
  O      480.077     574.641     273.016
  H      479.276     574.600     275.472
  H      477.434     571.597     271.793
  H      478.775     572.599     271.293
  H      477.157     573.259     271.328

 6  7  8  9  10  11  12  13  14  15  16  26  30  31  32  33  35 0
 6-311+G(2d,p)
 ****
 37  38 0
 6-311+G(2d,p)
 ****
 1  2  3  4  5  17  18  19  20  21  22  23  24  25 0
 3-21G
 ****
 27  28  29  34  36  39  40  41  42  43  44  45  46 0
 3-21G
 ****


