%nproc=1
%NoSave
%Mem=1900MB
#P OB98/GEN NMR

erre ene a

0 1
  C       90.510    -110.970    -181.754
  O       89.458    -110.940    -182.725
  P       89.517    -112.066    -183.872
  C       91.098    -112.664    -185.846
  O       90.731    -111.704    -184.862
  C       91.832    -112.020    -187.024
  O       90.920    -111.148    -187.736
  C       93.051    -111.174    -186.637
  O       94.065    -111.346    -187.639
  C       92.539    -109.750    -186.749
  O       93.594    -108.812    -186.941
  C       91.587    -109.891    -187.933
  N       90.158    -105.828    -190.584
  C       91.125    -106.772    -190.868
  N       91.825    -106.593    -192.010
  N       91.383    -107.800    -190.103
  C       90.584    -107.870    -189.011
  C       89.584    -107.003    -188.626
  C       89.341    -105.848    -189.462
  O       88.534    -104.948    -189.236
  N       88.994    -107.408    -187.453
  C       89.640    -108.509    -187.127
  N       90.618    -108.826    -188.037
  O       88.205    -111.772    -184.739
  O       89.520    -113.462    -183.344
  H       94.142    -109.144    -187.677
  H       87.649    -112.574    -184.784
  H       90.015    -105.046    -191.197
  H       89.461    -109.100    -186.240
  H       92.135    -109.946    -188.882
  H       92.004    -109.483    -185.830
  H       91.634    -105.861    -192.675
  H       93.463    -111.398    -185.649
  H       92.506    -107.300    -192.258
  H       92.126    -112.815    -187.719
  H       90.199    -113.166    -186.214
  H       91.733    -113.421    -185.374
  P       95.537    -111.702    -187.111
  C       97.430    -110.335    -185.965
  O       96.143    -110.329    -186.551
  O       96.360    -111.958    -188.458
  O       95.587    -112.869    -186.182
  H       97.103    -112.568    -188.289
  H       97.961    -111.274    -186.142
  H       97.332    -110.182    -184.888
  H       98.015    -109.516    -186.390
  H       90.366    -110.180    -181.047
  H       91.452    -110.842    -182.245
  H       90.498    -111.911    -181.244

 3  4  5  6  7  8  9  10  11  12  23  26  30  31  33  0
 6-311+G(2d,p)
 ****
 35  36  37  38 0
 6-311+G(2d,p)
 ****
 1  2  13  14  15  16  17  18  19  20  21  22  24  25  27  28  29 0
 3-21G
 ****
 32  34  39  40  41  42  43  44  45  46  47  48  49 0
 3-21G
 ****


