%nproc=1
%NoSave
%Mem=1900MB
#P OB98/GEN NMR

erre ene a

0 1
  C       42.906    -221.586     -65.501
  O       42.464    -222.827     -66.013
  H       42.229    -221.275     -64.701
  H       42.895    -220.827     -66.289
  H       43.915    -221.684     -65.093
  P       43.302    -223.426     -67.246
  C       43.478    -222.887     -69.776
  O       42.982    -222.483     -68.506
  C       43.653    -221.678     -70.690
  O       44.183    -220.554     -69.956
  C       44.586    -221.913     -71.872
  O       43.900    -222.539     -72.943
  C       45.013    -220.488     -72.199
  O       43.999    -219.808     -72.969
  C       45.144    -219.865     -70.802
  N       48.398    -217.618     -67.660
  C       47.148    -217.214     -68.089
  N       46.711    -216.018     -67.638
  N       46.399    -217.910     -68.900
  C       46.987    -219.058     -69.321
  C       48.215    -219.566     -68.969
  C       49.011    -218.810     -68.025
  O       50.088    -219.154     -67.545
  N       48.451    -220.768     -69.588
  C       47.382    -220.964     -70.337
  N       46.466    -219.950     -70.213
  O       42.527    -224.784     -67.599
  O       44.744    -223.684     -66.976
  H       44.370    -218.982     -73.325
  H       43.184    -225.462     -67.849
  H       48.917    -217.056     -67.011
  H       47.220    -221.822     -70.976
  H       44.871    -218.803     -70.802
  H       45.922    -220.469     -72.802
  H       47.339    -215.324     -67.263
  H       45.465    -222.495     -71.570
  H       45.828    -215.690     -68.012
  H       42.653    -221.385     -71.042
  H       42.766    -223.584     -70.226
  H       44.441    -223.391     -69.643
  P       44.761    -223.057     -74.191
  C       46.346    -222.003     -75.959
  O       45.435    -221.779     -74.891
  O       43.634    -223.506     -75.239
  O       45.686    -224.184     -73.887
  H       43.582    -224.481     -75.268
  H       46.709    -221.064     -76.321
  H       45.847    -222.521     -76.751
  H       47.168    -222.593     -75.609

 6  7  8  9  10  11  12  13  14  15  26  29  33  34 0
 6-311+G(2d,p)
 ****
 36  38  39  40  41 0
 6-311+G(2d,p)
 ****
 1  2  3  4  5  16  17  18  19  20  21  22  23  24  25 0
 3-21G
 ****
 27  28  30  31  32  35  37  42  43  44  45  46  47 0
 3-21G
 ****
 48  49 0
 3-21G
 ****


