%nproc=1
%NoSave
%Mem=1900MB
#P OB98/GEN NMR

erre ene a

0 1
  C      508.712      61.435     611.960
  O      508.983      62.334     610.903
  H      508.618      61.999     612.892
  H      509.543      60.730     612.054
  H      507.777      60.889     611.780
  P      508.770      61.800     609.406
  C      508.298      64.075     608.238
  O      507.767      62.830     608.686
  C      507.491      64.600     607.053
  O      507.673      63.684     605.922
  C      505.977      64.722     607.317
  O      505.486      65.891     606.640
  C      505.419      63.493     606.630
  O      504.047      63.645     606.280
  C      506.355      63.388     605.430
  N      504.146      60.799     601.737
  C      504.167      62.155     601.996
  N      503.437      62.944     601.169
  N      504.834      62.693     602.974
  C      505.543      61.790     603.706
  C      505.597      60.420     603.557
  C      504.831      59.839     602.484
  O      504.755      58.638     602.216
  N      506.374      59.854     604.546
  C      506.758      60.874     605.287
  N      506.283      62.072     604.821
  O      507.871      60.492     609.629
  O      510.017      61.494     608.656
  H      503.748      62.822     605.835
  H      508.441      59.701     609.665
  H      503.585      60.430     600.979
  H      507.368      60.803     606.182
  H      506.108      64.111     604.638
  H      505.516      62.612     607.287
  H      502.906      62.615     600.383
  H      505.722      64.774     608.383
  H      503.482      63.954     601.330
  H      507.909      65.566     606.747
  H      509.340      63.923     607.932
  H      508.274      64.788     609.066
  P      504.232      66.654     607.276
  C      505.420      68.942     607.682
  O      504.793      67.805     608.255
  O      503.620      65.582     608.295
  O      503.222      67.109     606.276
  H      502.648      65.674     608.333
  H      505.734      69.606     608.460
  H      504.727      69.446     607.041
  H      506.272      68.631     607.114

 6  7  8  9  10  11  12  13  14  15  26  29  33  34 0
 6-311+G(2d,p)
 ****
 36  38  39  40  41 0
 6-311+G(2d,p)
 ****
 1  2  3  4  5  16  17  18  19  20  21  22  23  24  25 0
 3-21G
 ****
 27  28  30  31  32  35  37  42  43  44  45  46  47 0
 3-21G
 ****
 48  49 0
 3-21G
 ****


