%nproc=1
%NoSave
%Mem=1900MB
#P OB98/GEN NMR

erre ene a

0 1
  C     -298.213     238.073     -51.128
  O     -298.192     238.148     -49.713
  P     -297.426     239.342     -48.967
  C     -299.575     240.685     -48.534
  O     -298.313     240.662     -49.191
  C     -299.808     242.037     -47.864
  O     -298.837     242.208     -46.804
  C     -299.660     243.220     -48.814
  O     -300.610     244.226     -48.457
  C     -298.267     243.758     -48.532
  O     -298.168     245.152     -48.862
  C     -298.116     243.431     -47.043
  N     -294.292     245.087     -44.046
  C     -295.578     245.486     -44.163
  N     -296.531     245.017     -44.997
  C     -296.058     243.997     -45.728
  C     -294.771     243.478     -45.715
  C     -293.861     244.071     -44.825
  N     -292.552     243.654     -44.699
  N     -294.651     242.449     -46.630
  C     -295.846     242.340     -47.169
  N     -296.734     243.243     -46.649
  O     -295.991     239.493     -49.329
  O     -297.620     239.035     -47.411
  H     -298.828     245.624     -48.312
  H     -296.809     239.261     -46.918
  H     -295.883     246.290     -43.496
  H     -296.117     241.634     -47.939
  H     -298.554     244.213     -46.411
  H     -297.533     243.216     -49.140
  H     -299.788     242.940     -49.866
  H     -300.803     242.033     -47.402
  H     -299.581     239.900     -47.770
  H     -292.011     244.053     -43.952
  H     -292.282     242.790     -45.149
  H     -300.367     240.470     -49.259
  P     -301.488     244.828     -49.666
  C     -303.841     244.234     -48.722
  O     -302.831     243.955     -49.666
  O     -300.715     244.893     -50.940
  O     -301.908     246.251     -49.066
  H     -301.901     246.244     -48.083
  H     -304.653     243.515     -48.854
  H     -304.238     245.240     -48.880
  H     -303.449     244.144     -47.704
  H     -298.770     237.211     -51.431
  H     -297.211     237.997     -51.496
  H     -298.673     238.954     -51.525

 3  4  5  6  7  8  9  10  11  12  22  25  29  30  31  32 0
 6-311+G(2d,p)
 ****
 33  36  37 0
 6-311+G(2d,p)
 ****
 1  2  13  14  15  16  17  18  19  20  21  23  24  26 0
 3-21G
 ****
 27  28  34  35  38  39  40  41  42  43  44  45  46  47  48 0
 3-21G
 ****


