%nproc=1
%NoSave
%Mem=1900MB
#P OB98/GEN NMR

erre ene a

0 1
  C      -57.347     185.907      33.847
  O      -56.909     186.358      32.586
  H      -56.471     185.639      34.444
  H      -57.972     185.017      33.738
  H      -57.900     186.692      34.368
  P      -57.994     186.780      31.481
  C      -58.258     189.036      32.676
  O      -58.929     187.876      32.203
  C      -59.147     189.832      33.634
  O      -60.141     190.571      32.873
  C      -59.898     188.959      34.649
  O      -59.773     189.522      35.957
  C      -61.347     189.047      34.193
  O      -62.277     188.794      35.242
  C      -61.377     190.459      33.601
  N      -62.543     190.673      32.754
  C      -63.723     191.037      33.410
  O      -63.736     191.169      34.634
  N      -64.867     191.192      32.674
  C      -64.849     190.955      31.400
  N      -66.026     191.098      30.732
  C      -63.632     190.541      30.670
  C      -62.526     190.423      31.403
  O      -58.724     185.640      30.857
  O      -57.179     187.660      30.421
  H      -63.185     188.827      34.867
  H      -57.664     187.656      29.563
  H      -63.671     190.350      29.609
  H      -61.583     190.123      30.956
  H      -61.376     191.217      34.394
  H      -61.522     188.306      33.401
  H      -59.547     187.927      34.671
  H      -58.526     190.584      34.139
  H      -66.837     191.377      31.272
  H      -57.976     189.653      31.815
  H      -66.139     190.918      29.747
  H      -57.355     188.721      33.207
  P      -59.768     188.482      37.179
  C      -57.517     188.976      38.372
  O      -58.241     188.113      37.508
  O      -60.359     187.145      36.528
  O      -60.583     188.931      38.346
  H      -61.250     186.969      36.884
  H      -56.522     188.603      38.496
  H      -58.004     189.018      39.324
  H      -57.480     189.957      37.947

 6  7  8  9  10  11  12  13  14  15  16  26  30  31  32  33  35 0
 6-311+G(2d,p)
 ****
 37  38 0
 6-311+G(2d,p)
 ****
 1  2  3  4  5  17  18  19  20  21  22  23  24  25 0
 3-21G
 ****
 27  28  29  34  36  39  40  41  42  43  44  45  46 0
 3-21G
 ****


