%nproc=1
%NoSave
%Mem=1900MB
#P OB98/GEN NMR

erre ene a

0 1
  C       38.912      22.517     -35.852
  O       37.730      23.053     -35.291
  H       38.635      21.800     -36.630
  H       39.496      21.999     -35.086
  H       39.508      23.315     -36.301
  P       37.918      24.107     -34.097
  C       37.454      26.153     -35.594
  O       36.989      25.351     -34.514
  C       36.276      26.668     -36.423
  O       35.735      25.563     -37.190
  C       35.142      27.245     -35.574
  O       34.590      28.382     -36.238
  C       34.116      26.127     -35.541
  O       32.793      26.609     -35.319
  C       34.328      25.471     -36.904
  N       30.410      22.359     -35.911
  C       30.507      23.704     -35.956
  N       31.590      24.456     -36.246
  C       32.640      23.674     -36.556
  C       32.694      22.291     -36.550
  C       31.508      21.622     -36.200
  N       31.410      20.251     -36.126
  N       33.963      21.857     -36.879
  C       34.658      22.958     -37.096
  N       33.904      24.081     -36.894
  O       39.327      24.450     -33.751
  O       37.070      23.424     -32.925
  H       32.168      25.865     -35.449
  H       36.219      23.080     -33.253
  H       29.596      24.251     -35.722
  H       35.704      22.994     -37.381
  H       33.775      25.976     -37.706
  H       34.359      25.427     -34.733
  H       35.469      27.526     -34.572
  H       36.649      27.403     -37.145
  H       38.125      25.571     -36.234
  H       30.517      19.852     -35.881
  H       32.213      19.685     -36.356
  H       38.017      26.991     -35.172
  P       34.508      29.768     -35.438
  C       36.327      30.915     -36.865
  O       34.975      30.952     -36.419
  O       35.125      29.777     -34.082
  O       32.925      30.017     -35.344
  H       32.719      30.415     -34.476
  H       36.514      31.750     -37.507
  H       36.501      30.006     -37.402
  H       36.983      30.961     -36.021

 6  7  8  9  10  11  12  13  14  15  25  28  32  33  34  35 0
 6-311+G(2d,p)
 ****
 36  39  40 0
 6-311+G(2d,p)
 ****
 1  2  3  4  5  16  17  18  19  20  21  22  23  24 0
 3-21G
 ****
 26  27  29  30  31  37  38  41  42  43  44  45  46  47 0
 3-21G
 ****
 48 0
 3-21G
 ****


