%nproc=1
%NoSave
%Mem=1900MB
#P OB98/GEN NMR

erre ene a

0 1
  C      120.958     -34.199     107.601
  O      119.618     -34.697     107.659
  P      118.487     -33.707     108.231
  C      117.848     -32.864     110.625
  O      118.740     -33.616     109.816
  C      118.014     -33.232     112.105
  O      117.485     -34.572     112.341
  C      119.465     -33.205     112.608
  O      119.428     -32.706     113.954
  C      119.859     -34.669     112.600
  O      120.951     -34.934     113.473
  C      118.532     -35.321     113.006
  N      118.470     -36.743     112.667
  C      118.665     -37.644     113.711
  O      118.957     -37.296     114.855
  N      118.557     -38.970     113.377
  C      118.359     -39.469     112.121
  O      118.269     -40.669     111.881
  C      118.273     -38.467     111.045
  C      118.334     -37.175     111.366
  O      117.173     -34.607     108.088
  O      118.439     -32.399     107.509
  H      117.330     -35.552     108.270
  H      120.726     -34.611     114.368
  H      118.664     -39.645     114.128
  H      118.172     -38.830     110.026
  H      118.300     -36.415     110.596
  H      118.370     -35.216     114.087
  H      120.143     -34.973     111.584
  H      120.116     -32.569     111.995
  H      117.400     -32.537     112.699
  H      116.814     -33.067     110.326
  H      118.024     -31.794     110.458
  P      120.453     -31.531     114.356
  C      123.046     -31.381     114.724
  O      121.920     -32.175     114.415
  O      120.080     -31.352     115.913
  O      120.303     -30.261     113.581
  H      120.023     -32.198     116.387
  H      123.892     -32.042     114.942
  H      122.858     -30.760     115.600
  H      123.301     -30.751     113.867
  H      121.603     -34.955     107.204
  H      121.283     -33.934     108.585
  H      120.991     -33.335     106.970

 3  4  5  6  7  8  9  10  11  12  13  24  28  29  30  31  32 0
 6-311+G(2d,p)
 ****
 33  34 0
 6-311+G(2d,p)
 ****
 1  2  14  15  16  17  18  19  20  21  22  23  25  26  27 0
 3-21G
 ****
 35  36  37  38  39  40  41  42  43  44  45 0
 3-21G
 ****


