%nproc=1
%NoSave
%Mem=1900MB
#P OB98/GEN NMR

erre ene a

0 1
  C     -251.174      67.251     323.398
  O     -250.774      68.571     323.718
  H     -252.089      67.296     322.799
  H     -251.385      66.677     324.305
  H     -250.395      66.750     322.818
  P     -249.543      68.768     324.726
  C     -250.894      70.530     326.055
  O     -250.188      69.293     326.095
  C     -252.164      70.437     326.896
  O     -253.163      69.661     326.206
  C     -251.948      69.739     328.234
  O     -251.295      70.595     329.150
  C     -253.370      69.357     328.590
  O     -254.087      70.471     329.139
  C     -253.940      68.961     327.207
  N     -253.915      67.521     326.977
  C     -255.161      66.889     326.904
  O     -256.199      67.539     327.025
  N     -255.193      65.529     326.720
  C     -254.087      64.863     326.600
  N     -254.190      63.519     326.418
  C     -252.755      65.493     326.657
  C     -252.743      66.811     326.850
  O     -248.390      69.584     324.232
  O     -249.108      67.269     325.083
  H     -254.916      70.104     329.501
  H     -248.439      66.946     324.452
  H     -251.860      64.900     326.546
  H     -251.804      67.354     326.904
  H     -254.975      69.309     327.103
  H     -253.397      68.554     329.322
  H     -251.375      68.816     328.088
  H     -252.559      71.450     327.039
  H     -255.126      63.127     326.396
  H     -251.148      70.725     325.007
  H     -253.406      62.915     326.226
  H     -250.261      71.350     326.415
  P     -249.837      70.230     329.708
  C     -250.586      70.506     332.162
  O     -250.082      69.614     331.170
  O     -248.834      71.335     329.636
  O     -249.424      68.946     328.841
  H     -249.186      69.196     327.917
  H     -250.706      69.981     333.086
  H     -251.532      70.893     331.846
  H     -249.898      71.314     332.298

 6  7  8  9  10  11  12  13  14  15  16  26  30  31  32  33  35 0
 6-311+G(2d,p)
 ****
 37  38 0
 6-311+G(2d,p)
 ****
 1  2  3  4  5  17  18  19  20  21  22  23  24  25 0
 3-21G
 ****
 27  28  29  34  36  39  40  41  42  43  44  45  46 0
 3-21G
 ****


