%nproc=1
%NoSave
%Mem=1900MB
#P OB98/GEN NMR

erre ene a

0 1
  C     -324.206    -323.470     120.338
  O     -323.658    -322.287     119.782
  H     -323.389    -324.153     120.590
  H     -324.861    -323.958     119.608
  H     -324.766    -323.238     121.247
  P     -324.704    -321.148     119.361
  C     -326.423    -320.878     117.417
  O     -325.386    -321.656     117.999
  C     -326.436    -321.063     115.892
  O     -325.348    -320.277     115.317
  C     -326.217    -322.522     115.444
  O     -326.888    -322.696     114.180
  C     -324.714    -322.555     115.227
  O     -324.333    -323.698     114.496
  C     -324.521    -321.190     114.558
  N     -319.910    -321.820     112.444
  C     -321.101    -322.389     112.184
  N     -322.289    -322.164     112.781
  C     -322.172    -321.225     113.732
  C     -321.024    -320.543     114.107
  C     -319.844    -320.878     113.419
  N     -318.621    -320.300     113.691
  N     -321.296    -319.645     115.123
  C     -322.584    -319.780     115.358
  N     -323.157    -320.725     114.546
  O     -323.762    -319.940     118.887
  O     -325.659    -320.725     120.426
  H     -324.766    -323.710     113.614
  H     -323.629    -319.313     119.625
  H     -321.103    -323.140     111.386
  H     -323.155    -319.232     116.105
  H     -324.883    -321.189     113.525
  H     -324.182    -322.598     116.181
  H     -326.594    -323.257     116.155
  H     -327.371    -320.656     115.493
  H     -326.244    -319.825     117.663
  H     -327.386    -321.188     117.829
  H     -317.818    -320.611     113.163
  H     -318.552    -319.616     114.424
  P     -328.416    -323.201     114.168
  C     -329.660    -325.495     113.894
  O     -328.427    -324.804     114.053
  O     -328.904    -322.764     112.702
  O     -329.305    -322.616     115.218
  H     -329.867    -322.605     112.714
  H     -329.474    -326.547     113.836
  H     -330.139    -325.167     112.995
  H     -330.294    -325.291     114.731

 6  7  8  9  10  11  12  13  14  15  25  28  32  33  34  35 0
 6-311+G(2d,p)
 ****
 36  37  40 0
 6-311+G(2d,p)
 ****
 1  2  3  4  5  16  17  18  19  20  21  22  23  24 0
 3-21G
 ****
 26  27  29  30  31  38  39 41  42  43  44  45  46  47  48 0
 3-21G
 ****


