%nproc=1
%NoSave
%Mem=1900MB
#P OB98/GEN NMR

erre ene a

0 1
  C     -177.545     -57.398     110.978
  O     -176.838     -56.169     110.972
  P     -175.313     -56.093     110.477
  C     -176.083     -55.867     108.035
  O     -175.340     -56.640     108.970
  C     -175.482     -56.011     106.640
  O     -174.114     -55.541     106.682
  C     -175.400     -57.436     106.092
  O     -176.591     -57.900     105.474
  C     -174.316     -57.269     105.035
  O     -174.877     -56.667     103.854
  C     -173.346     -56.301     105.715
  N     -169.169     -59.181     105.065
  C     -170.030     -58.624     104.184
  N     -171.131     -57.886     104.437
  C     -171.284     -57.703     105.758
  C     -170.487     -58.202     106.775
  C     -169.380     -58.976     106.385
  N     -168.492     -59.522     107.284
  N     -170.974     -57.818     108.010
  C     -172.036     -57.090     107.736
  N     -172.259     -56.984     106.391
  O     -174.336     -56.748     111.388
  O     -175.037     -54.531     110.288
  H     -174.181     -56.682     103.170
  H     -174.075     -54.365     110.247
  H     -169.809     -58.800     103.134
  H     -172.671     -56.625     108.476
  H     -172.907     -55.583     105.013
  H     -173.873     -58.220     104.727
  H     -175.051     -58.138     106.858
  H     -176.040     -55.362     105.955
  H     -176.033     -54.816     108.341
  H     -167.659     -59.950     106.911
  H     -168.556     -59.235     108.251
  H     -177.130     -56.180     108.049
  P     -176.801     -59.493     105.393
  C     -177.027     -59.816     107.980
  O     -176.293     -60.066     106.801
  O     -176.210     -60.136     104.188
  O     -178.392     -59.644     105.485
  H     -178.783     -59.393     106.337
  H     -176.608     -60.421     108.789
  H     -178.077     -60.087     107.851
  H     -176.949     -58.761     108.254
  H     -178.539     -57.236     111.340
  H     -177.042     -58.095     111.615
  H     -177.587     -57.790     109.983

 3  4  5  6  7  8  9  10  11  12  22  25  29  30  31  32 0
 6-311+G(2d,p)
 ****
 33  36  37 0
 6-311+G(2d,p)
 ****
 1  2  13  14  15  16  17  18  19  20  21  23  24  26 0
 3-21G
 ****
 27  28  34  35  38  39  40  41  42  43  44  45  46  47  48 0
 3-21G
 ****


