%nproc=1
%NoSave
%Mem=1900MB
#P OB98/GEN NMR

erre ene a

0 1
  C      433.376    -376.104    -759.985
  O      432.082    -375.931    -760.537
  H      433.789    -377.051    -760.337
  H      433.332    -376.138    -758.893
  H      434.037    -375.291    -760.299
  P      431.205    -374.689    -760.040
  C      428.787    -375.526    -760.464
  O      429.867    -374.715    -760.934
  C      427.512    -375.188    -761.235
  O      427.149    -373.803    -761.044
  C      427.659    -375.376    -762.744
  O      427.636    -376.729    -763.091
  C      426.507    -374.540    -763.247
  O      425.267    -375.259    -763.158
  C      426.523    -373.342    -762.258
  N      427.229    -372.185    -762.806
  C      426.439    -371.293    -763.558
  O      425.238    -371.508    -763.727
  N      427.058    -370.193    -764.109
  C      428.328    -369.987    -763.911
  N      428.861    -368.878    -764.491
  C      429.181    -370.892    -763.113
  C      428.575    -371.955    -762.589
  O      431.885    -373.353    -759.991
  O      430.690    -375.142    -758.592
  H      424.551    -374.582    -763.277
  H      431.320    -374.873    -757.903
  H      430.231    -370.668    -762.968
  H      429.128    -372.671    -761.995
  H      425.499    -373.046    -762.008
  H      426.637    -374.246    -764.288
  H      428.600    -374.904    -763.095
  H      426.693    -375.823    -760.835
  H      428.262    -368.286    -765.044
  H      428.656    -375.287    -759.399
  H      429.824    -368.571    -764.341
  H      429.019    -376.582    -760.552
  P      428.992    -377.553    -763.335
  C      428.122    -378.108    -765.710
  O      428.669    -378.623    -764.489
  O      429.635    -378.117    -762.102
  O      429.932    -376.491    -764.114
  H      430.268    -375.796    -763.479
  H      427.952    -378.914    -766.393
  H      428.810    -377.412    -766.143
  H      427.196    -377.613    -765.505

 6  7  8  9  10  11  12  13  14  15  16  26  30  31  32  33  35 0
 6-311+G(2d,p)
 ****
 37  38 0
 6-311+G(2d,p)
 ****
 1  2  3  4  5  17  18  19  20  21  22  23  24  25 0
 3-21G
 ****
 27  28  29  34  36  39  40  41  42  43  44  45  46 0
 3-21G
 ****


