%nproc=1
%NoSave
%Mem=1900MB
#P OB98/GEN NMR

erre ene a

0 1
  C      381.452    -895.722      70.916
  O      381.209    -896.042      72.264
  H      380.807    -896.352      70.285
  H      382.493    -895.932      70.650
  H      381.214    -894.672      70.712
  P      381.915    -895.152      73.403
  C      384.368    -895.842      73.018
  O      383.233    -895.942      73.872
  C      385.582    -895.402      73.837
  O      385.451    -894.042      74.265
  C      385.783    -896.222      75.117
  O      386.296    -897.512      74.849
  C      386.711    -895.302      75.903
  O      388.064    -895.472      75.478
  C      386.185    -893.912      75.501
  N      385.339    -893.322      76.550
  C      386.012    -892.752      77.630
  O      387.228    -892.702      77.726
  N      385.212    -892.272      78.640
  C      383.851    -892.432      78.743
  O      383.224    -892.222      79.760
  C      383.199    -893.012      77.536
  C      383.969    -893.412      76.532
  O      381.013    -894.712      74.513
  O      382.509    -893.912      72.586
  H      381.924    -893.132      72.712
  H      388.312    -896.392      75.719
  H      385.694    -891.892      79.440
  H      382.115    -893.072      77.544
  H      383.509    -893.862      75.654
  H      387.015    -893.232      75.296
  H      386.659    -895.502      76.971
  H      384.834    -896.302      75.657
  H      386.478    -895.482      73.196
  H      384.160    -895.082      72.251
  H      384.544    -896.812      72.521
  P      385.351    -898.802      74.906
  C      386.105    -899.252      77.329
  O      385.937    -899.802      76.034
  O      385.047    -899.442      73.608
  O      384.007    -898.252      75.607
  H      383.237    -898.532      75.076
  H      386.496    -900.000      77.986
  H      385.160    -898.912      77.697
  H      386.786    -898.428      77.281

 6  7  8  9  10  11  12  13  14  15  16  27  31  32  33  34  35 0
 6-311+G(2d,p)
 ****
 36  37 0
 6-311+G(2d,p)
 ****
 1  2  3  4  5  17  18  19  20  21  22  23  24  25 0
 3-21G
 ****
 26  28  29  30  38  39  40  41  42  43  44  45 0
 3-21G
 ****


