%nproc=1
%NoSave
%Mem=1900MB
#P OB98/GEN NMR

erre ene a

0 1
  C     -208.201     -58.949    -533.860
  O     -209.488     -58.675    -534.384
  P     -210.069     -57.194    -534.200
  C     -208.755     -56.445    -536.325
  O     -209.076     -56.194    -534.964
  C     -209.441     -55.407    -537.216
  O     -210.876     -55.586    -537.178
  C     -209.194     -53.971    -536.780
  O     -207.917     -53.514    -537.194
  C     -210.348     -53.239    -537.457
  O     -210.032     -52.939    -538.827
  C     -211.478     -54.287    -537.376
  N     -212.451     -53.981    -536.335
  C     -213.573     -54.808    -536.288
  O     -213.757     -55.729    -537.084
  N     -214.493     -54.515    -535.321
  C     -214.438     -53.466    -534.449
  O     -215.323     -53.218    -533.641
  C     -213.245     -52.609    -534.564
  C     -212.328     -52.897    -535.487
  O     -209.818     -56.873    -532.652
  O     -211.506     -57.038    -534.572
  H     -210.013     -53.794    -539.302
  H     -210.551     -56.329    -532.303
  H     -215.301     -55.115    -535.254
  H     -213.167     -51.765    -533.890
  H     -211.449     -52.271    -535.597
  H     -212.008     -54.345    -538.334
  H     -210.580     -52.293    -536.967
  H     -209.308     -53.884    -535.691
  H     -209.104     -55.561    -538.250
  H     -209.091     -57.448    -536.599
  H     -207.668     -56.401    -536.451
  P     -207.225     -52.376    -536.295
  C     -205.900     -54.106    -534.854
  O     -206.883     -53.095    -534.906
  O     -208.483     -51.439    -535.984
  O     -206.093     -51.693    -536.989
  H     -209.311     -51.942    -535.918
  H     -205.079     -53.902    -535.548
  H     -206.355     -55.067    -535.103
  H     -205.498     -54.156    -533.836
  H     -207.946     -59.970    -534.056
  H     -208.202     -58.778    -532.804
  H     -207.483     -58.307    -534.325

 3  4  5  6  7  8  9  10  11  12  13  23  28  29  30  31  32 0
 6-311+G(2d,p)
 ****
 33  34 0
 6-311+G(2d,p)
 ****
 1  2  14  15  16  17  18  19  20  21  22  24  25  26 0
 3-21G
 ****
 27  35  36  37  38  39  40  41  42  43  44  45 0
 3-21G
 ****


