%nproc=1
%NoSave
%Mem=1900MB
#P OB98/GEN NMR

erre ene a

0 1
  C       55.366    -306.301     -29.042
  O       55.017    -306.166     -30.403
  H       55.984    -305.447     -28.755
  H       55.940    -307.217     -28.884
  H       54.469    -306.309     -28.417
  P       54.158    -307.327     -31.097
  C       54.605    -309.722     -31.951
  O       55.144    -308.579     -31.295
  C       55.408    -310.974     -31.574
  O       56.798    -310.720     -31.894
  C       55.309    -311.305     -30.078
  O       54.912    -312.652     -29.833
  C       56.654    -310.847     -29.530
  O       57.069    -311.518     -28.360
  C       57.594    -311.008     -30.730
  N       58.769    -310.142     -30.680
  C       60.012    -310.737     -30.889
  O       60.194    -311.927     -31.122
  N       61.090    -309.890     -30.826
  C       61.049    -308.552     -30.567
  O       62.049    -307.846     -30.527
  C       59.711    -307.988     -30.328
  C       58.650    -308.796     -30.393
  O       53.405    -306.927     -32.322
  O       53.172    -307.826     -29.939
  H       56.943    -312.480     -28.518
  H       52.271    -307.491     -30.111
  H       61.993    -310.304     -30.989
  H       59.645    -306.933     -30.109
  H       57.649    -308.412     -30.224
  H       57.946    -312.038     -30.804
  H       56.580    -309.780     -29.279
  H       54.514    -310.719     -29.602
  H       55.072    -311.809     -32.199
  H       54.660    -309.547     -33.031
  H       53.557    -309.852     -31.662
  P       54.164    -313.165     -28.521
  C       54.855    -314.391     -26.300
  O       55.242    -313.835     -27.549
  O       52.899    -313.921     -28.744
  O       53.783    -311.803     -27.745
  H       52.948    -311.984     -27.269
  H       55.716    -314.787     -25.804
  H       54.146    -315.175     -26.463
  H       54.412    -313.630     -25.693

 6  7  8  9  10  11  12  13  14  15  16  26  31  32  33  34  35 0
 6-311+G(2d,p)
 ****
 36  37 0
 6-311+G(2d,p)
 ****
 1  2  3  4  5  17  18  19  20  21  22  23  24  25 0
 3-21G
 ****
 27  28  29  30  38  39  40  41  42  43  44  45 0
 3-21G
 ****


