%nproc=1
%NoSave
%Mem=1900MB
#P OB98/GEN NMR

erre ene a

0 1
  C      -57.953     -81.736       5.915
  O      -58.671     -81.535       4.712
  H      -58.635     -82.145       6.665
  H      -57.557     -80.785       6.280
  H      -57.139     -82.445       5.753
  P      -57.835     -80.958       3.470
  C      -59.187     -78.785       3.862
  O      -58.732     -79.747       2.920
  C      -60.514     -78.181       3.412
  O      -60.975     -77.205       4.362
  C      -60.452     -77.458       2.072
  O      -60.523     -78.378       0.996
  C      -61.700     -76.594       2.159
  O      -62.863     -77.385       1.845
  C      -61.727     -76.191       3.644
  N      -62.032     -71.140       2.787
  C      -62.649     -72.188       2.201
  N      -62.488     -73.504       2.451
  C      -61.579     -73.699       3.420
  C      -60.870     -72.727       4.109
  C      -61.133     -71.391       3.766
  N      -60.508     -70.323       4.374
  N      -60.023     -73.303       5.033
  C      -60.257     -74.596       4.940
  N      -61.164     -74.890       3.953
  O      -57.392     -81.963       2.466
  O      -56.653     -80.188       4.230
  H      -62.694     -77.829       0.992
  H      -56.991     -79.747       5.029
  H      -63.370     -71.936       1.429
  H      -59.812     -75.356       5.571
  H      -62.747     -76.191       4.046
  H      -61.681     -75.763       1.450
  H      -59.572     -76.810       2.008
  H      -61.258     -78.988       3.386
  H      -58.441     -77.993       3.989
  H      -60.627     -69.415       3.953
  H      -59.751     -70.517       5.012
  H      -59.311     -79.298       4.821
  P      -59.320     -78.498      -0.057
  C      -59.872     -76.042      -0.581
  O      -59.525     -77.312      -1.121
  O      -59.142     -79.848      -0.660
  O      -58.026     -78.034       0.756
  H      -57.254     -78.577       0.504
  H      -59.982     -75.334      -1.376
  H      -59.100     -75.714       0.084
  H      -60.794     -76.122      -0.045

 6  7  8  9  10  11  12  13  14  15  25  28  32  33  34  35 0
 6-311+G(2d,p)
 ****
 36  39  40 0
 6-311+G(2d,p)
 ****
 1  2  3  4  5  16  17  18  19  20  21  22  23  24 0
 3-21G
 ****
 26  27  29  30  31  37  38  41  42  43  44  45  46  47 0
 3-21G
 ****
 48 0
 3-21G
 ****


