%nproc=1
%NoSave
%Mem=1900MB
#P OB98/GEN NMR

erre ene a

0 1
  C      203.832      35.973     742.146
  O      204.563      37.129     742.526
  P      205.920      36.913     743.358
  C      207.411      37.178     741.247
  O      207.075      37.662     742.537
  C      207.857      38.331     740.348
  O      206.772      39.250     740.115
  C      208.982      39.176     740.933
  O      210.258      38.582     740.751
  C      208.859      40.439     740.099
  O      209.489      40.252     738.818
  C      207.340      40.572     739.936
  N      207.337      45.343     741.621
  C      207.932      44.800     740.499
  N      208.682      45.641     739.754
  N      207.805      43.553     740.136
  C      207.033      42.824     740.982
  C      206.389      43.251     742.127
  C      206.549      44.632     742.521
  O      206.095      45.156     743.532
  N      205.692      42.228     742.714
  C      205.908      41.187     741.937
  N      206.753      41.490     740.893
  O      206.250      35.365     743.130
  O      205.821      37.262     744.807
  H      210.385      39.907     738.995
  H      206.892      35.057     743.799
  H      207.476      46.311     741.864
  H      205.496      40.201     742.089
  H      207.065      40.911     738.929
  H      209.341      41.304     740.565
  H      208.873      46.598     740.010
  H      208.792      39.414     741.987
  H      209.183      45.259     738.958
  H      208.160      37.906     739.379
  H      206.540      36.687     740.807
  H      208.213      36.438     741.336
  P      211.520      39.378     741.350
  C      211.301      38.415     743.752
  O      212.054      38.472     742.556
  O      210.839      40.629     742.082
  O      212.528      39.790     740.334
  H      211.466      41.380     742.120
  H      211.655      37.565     744.350
  H      210.237      38.270     743.541
  H      211.442      39.335     744.326
  H      202.958      36.266     741.602
  H      203.542      35.431     743.022
  H      204.445      35.351     741.528

 3  4  5  6  7  8  9  10  11  12  23  26  30  31 0
 6-311+G(2d,p)
 ****
 33  35  36  37  38 0
 6-311+G(2d,p)
 ****
 1  2  13  14  15  16  17  18  19  20  21  22  24  25 0
 3-21G
 ****
 27  28  29  32  34  39  40  41  42  43  44  45  46  47  48  49 0
 3-21G
 ****


