%nproc=1
%NoSave
%Mem=1900MB
#P OB98/GEN NMR

erre ene a

0 1
  C      591.894    -588.825     952.512
  O      592.506    -589.693     951.548
  P      591.840    -591.140     951.351
  C      590.383    -590.627     949.253
  O      590.415    -590.924     950.652
  C      589.953    -591.845     948.448
  O      588.571    -592.180     948.714
  C      590.038    -591.679     946.944
  O      591.369    -591.844     946.477
  C      589.151    -592.814     946.468
  O      589.899    -594.050     946.438
  C      588.062    -592.855     947.540
  N      584.005    -593.101     944.499
  C      585.080    -593.969     944.627
  N      585.053    -595.080     943.841
  N      586.076    -593.773     945.439
  C      585.965    -592.645     946.172
  C      584.954    -591.712     946.136
  C      583.862    -591.921     945.212
  O      582.902    -591.169     945.037
  N      585.170    -590.700     947.041
  C      586.293    -591.037     947.638
  N      586.820    -592.206     947.138
  O      591.447    -591.564     952.850
  O      592.732    -592.146     950.706
  H      589.307    -594.728     946.074
  H      591.435    -592.528     952.925
  H      583.265    -593.307     943.853
  H      586.775    -590.479     948.441
  H      587.821    -593.880     947.847
  H      588.781    -592.654     945.441
  H      584.280    -595.340     943.242
  H      589.625    -590.712     946.628
  H      585.800    -595.749     943.953
  H      590.569    -592.696     948.787
  H      591.378    -590.315     948.924
  H      589.705    -589.782     949.086
  P      591.872    -590.866     945.310
  C      592.450    -588.711     946.643
  O      591.529    -589.384     945.809
  O      590.820    -591.131     944.141
  O      593.282    -591.098     944.876
  H      591.236    -590.974     943.263
  H      593.471    -588.861     946.294
  H      592.359    -589.092     947.673
  H      592.229    -587.642     946.648
  H      592.428    -587.899     952.548
  H      591.919    -589.289     953.476
  H      590.878    -588.640     952.231

 3  4  5  6  7  8  9  10  11  12  23  26  30  31  33  0
 6-311+G(2d,p)
 ****
 35  36  37  38 0
 6-311+G(2d,p)
 ****
 1  2  13  14  15  16  17  18  19  20  21  22  24  25  27  28  29 0
 3-21G
 ****
 32  34  39  40  41  42  43  44  45  46  47  48  49 0
 3-21G
 ****


