%nproc=1
%NoSave
%Mem=1900MB
#P OB98/GEN NMR

erre ene a

0 1
  C     -131.509      96.438     -39.447
  O     -131.043      95.538     -40.439
  P     -129.567      94.932     -40.251
  C     -130.609      93.019     -38.825
  O     -129.612      94.032     -38.918
  C     -130.067      91.767     -38.126
  O     -129.460      92.159     -36.869
  C     -131.130      90.710     -37.828
  O     -130.535      89.422     -38.016
  C     -131.430      90.908     -36.354
  O     -131.945      89.720     -35.754
  C     -130.050      91.350     -35.830
  N     -130.153      92.085     -34.572
  C     -129.230      91.755     -33.568
  O     -128.443      90.825     -33.739
  N     -129.266      92.447     -32.381
  C     -130.205      93.320     -32.176
  N     -130.194      93.987     -30.988
  C     -131.265      93.612     -33.161
  C     -131.168      92.983     -34.331
  O     -128.708      96.206     -39.808
  O     -129.009      94.267     -41.466
  H     -132.830      89.537     -36.143
  H     -127.792      96.139     -40.128
  H     -132.047      94.323     -32.925
  H     -131.888      93.153     -35.125
  H     -129.398      90.479     -35.674
  H     -132.163      91.710     -36.224
  H     -132.012      90.800     -38.468
  H     -129.273      91.343     -38.756
  H     -129.464      93.754     -30.323
  H     -130.920      92.735     -39.836
  H     -130.888      94.680     -30.739
  H     -131.479      93.409     -38.299
  P     -131.497      88.201     -38.408
  C     -130.140      87.735     -40.541
  O     -131.398      88.098     -40.008
  O     -132.949      88.865     -38.217
  O     -131.381      86.928     -37.638
  H     -133.637      88.192     -38.370
  H     -130.250      87.574     -41.619
  H     -129.779      86.816     -40.079
  H     -129.419      88.545     -40.386
  H     -132.498      96.762     -39.695
  H     -130.858      97.286     -39.400
  H     -131.523      95.946     -38.497

 3  4  5  6  7  8  9  10  11  12  13  21  23  27  28  29  30  32 0
 6-311+G(2d,p)
 ****
 34  35 0
 6-311+G(2d,p)
 ****
 1  2  14  15  16  17  18  19  20  22  24  25  26 0
 3-21G
 ****
 31  33  36  37  38  39  40  41  42  43  44  45  46 0
 3-21G
 ****


