%nproc=1
%NoSave
%Mem=1900MB
#P OB98/GEN NMR

erre ene a

0 1
  C      408.931      75.092     -67.611
  O      408.489      76.433     -67.759
  P      406.976      76.763     -68.176
  C      406.285      75.624     -65.962
  O      406.081      75.707     -67.368
  C      405.175      76.375     -65.231
  O      403.896      75.960     -65.746
  C      405.119      76.113     -63.733
  O      406.140      76.823     -63.050
  C      403.692      76.543     -63.414
  O      403.613      77.976     -63.310
  C      402.931      76.067     -64.668
  N      402.233      74.804     -64.462
  C      401.266      74.461     -65.411
  O      401.034      75.197     -66.369
  N      400.596      73.268     -65.270
  C      400.853      72.495     -64.264
  N      400.214      71.294     -64.214
  C      401.831      72.840     -63.210
  C      402.478      73.992     -63.375
  O      406.725      76.792     -69.646
  O      406.646      78.139     -67.439
  H      402.669      78.197     -63.188
  H      406.885      78.939     -67.966
  H      401.998      72.166     -62.381
  H      403.225      74.310     -62.656
  H      402.205      76.825     -64.982
  H      403.304      76.120     -62.484
  H      405.232      75.038     -63.523
  H      405.296      77.446     -65.427
  H      399.694      71.024     -65.042
  H      407.251      76.089     -65.720
  H      400.561      70.533     -63.642
  H      406.318      74.571     -65.664
  P      407.132      75.985     -62.109
  C      409.153      76.690     -63.565
  O      408.402      75.625     -63.024
  O      406.368      74.594     -61.918
  O      407.449      76.644     -60.807
  H      405.921      74.563     -61.049
  H      410.098      76.289     -63.946
  H      409.377      77.441     -62.799
  H      408.609      77.150     -64.392
  H      409.964      75.086     -67.331
  H      408.810      74.572     -68.538
  H      408.353      74.608     -66.852

 3  4  5  6  7  8  9  10  11  12  13  23  27  28  29  30  32 0
 6-311+G(2d,p)
 ****
 34  35 0
 6-311+G(2d,p)
 ****
 1  2  14  15  16  17  18  19  20  21  22  24  25  26 0
 3-21G
 ****
 31  33  36  37  38  39  40  41  42  43  44  45  46 0
 3-21G
 ****


