%nproc=1
%NoSave
%Mem=1900MB
#P OB98/GEN NMR

erre ene a

0 1
  C     -236.082     -19.962    -133.304
  O     -235.605     -20.611    -134.484
  P     -235.409     -22.202    -134.404
  C     -235.489     -22.941    -136.887
  O     -234.679     -22.696    -135.746
  C     -235.552     -21.721    -137.816
  O     -234.222     -21.324    -138.244
  C     -236.384     -21.957    -139.078
  O     -237.015     -20.720    -139.414
  C     -235.332     -22.267    -140.126
  O     -235.835     -22.051    -141.443
  C     -234.205     -21.317    -139.687
  N     -232.896     -21.694    -140.215
  C     -232.586     -21.271    -141.509
  O     -233.426     -20.669    -142.182
  N     -231.353     -21.572    -142.028
  C     -230.521     -22.283    -141.334
  N     -229.315     -22.552    -141.905
  C     -230.826     -22.803    -139.988
  C     -232.018     -22.469    -139.496
  O     -236.900     -22.766    -134.551
  O     -234.774     -22.663    -133.131
  H     -236.316     -21.195    -141.449
  H     -237.082     -23.415    -133.845
  H     -230.108     -23.409    -139.455
  H     -232.333     -22.799    -138.516
  H     -234.416     -20.291    -140.016
  H     -235.008     -23.310    -140.043
  H     -237.139     -22.740    -138.964
  H     -235.975     -20.885    -137.247
  H     -229.139     -22.172    -142.828
  H     -236.502     -23.203    -136.573
  H     -228.592     -23.097    -141.458
  H     -235.100     -23.817    -137.416
  P     -238.616     -20.671    -139.456
  C     -239.228     -18.612    -138.048
  O     -238.981     -19.112    -139.347
  O     -238.993     -21.187    -137.983
  O     -239.326     -21.458    -140.505
  H     -239.959     -21.271    -137.903
  H     -239.339     -17.527    -138.105
  H     -238.391     -18.848    -137.382
  H     -240.154     -19.039    -137.653
  H     -236.169     -18.911    -133.485
  H     -235.394     -20.129    -132.502
  H     -237.040     -20.359    -133.041

 3  4  5  6  7  8  9  10  11  12  13  21  23  27  28  29  30  32 0
 6-311+G(2d,p)
 ****
 34  35 0
 6-311+G(2d,p)
 ****
 1  2  14  15  16  17  18  19  20  22  24  25  26 0
 3-21G
 ****
 31  33  36  37  38  39  40  41  42  43  44  45  46 0
 3-21G
 ****


