%nproc=1
%NoSave
%Mem=1900MB
#P OB98/GEN NMR

erre ene a

0 1
  C     -851.376    -891.365    -247.035
  O     -851.509    -892.585    -246.346
  H     -852.354    -890.875    -247.074
  H     -851.038    -891.555    -248.058
  H     -850.671    -890.685    -246.532
  P     -850.194    -893.275    -245.744
  C     -848.007    -894.305    -246.635
  O     -849.228    -893.655    -246.970
  C     -847.360    -894.945    -247.876
  O     -846.862    -893.925    -248.763
  C     -846.176    -895.865    -247.509
  O     -846.536    -897.175    -247.206
  C     -845.349    -895.795    -248.791
  O     -845.751    -896.815    -249.728
  C     -845.646    -894.395    -249.344
  N     -841.715    -891.775    -251.301
  C     -842.454    -892.775    -251.893
  N     -842.084    -893.155    -253.142
  N     -843.465    -893.355    -251.294
  C     -843.653    -892.955    -250.030
  C     -842.973    -891.975    -249.319
  C     -841.911    -891.265    -250.023
  O     -841.228    -890.355    -249.547
  N     -843.430    -891.875    -248.023
  C     -844.332    -892.825    -247.921
  N     -844.556    -893.465    -249.130
  O     -850.720    -894.725    -245.269
  O     -849.540    -892.545    -244.602
  H     -845.374    -897.675    -249.416
  H     -850.209    -895.015    -244.498
  H     -840.972    -891.325    -251.812
  H     -844.877    -893.075    -247.026
  H     -845.811    -894.435    -250.440
  H     -844.295    -895.985    -248.586
  H     -841.255    -892.785    -253.607
  H     -845.585    -895.425    -246.707
  H     -842.467    -894.015    -253.517
  H     -848.137    -895.505    -248.437
  H     -848.244    -895.055    -245.898
  H     -847.314    -893.585    -246.174
  P     -845.430    -898.225    -246.677
  C     -843.076    -899.015    -247.576
  O     -844.353    -898.435    -247.850
  O     -846.215    -899.615    -246.638
  O     -844.796    -897.885    -245.355
  H     -846.511    -899.815    -245.735
  H     -842.507    -899.069    -248.481
  H     -843.209    -900.000    -247.179
  H     -842.555    -898.411    -246.863

 6  7  8  9  10  11  12  13  14  15  26  29  33  34 0
 6-311+G(2d,p)
 ****
 36  38  39  40  41 0
 6-311+G(2d,p)
 ****
 1  2  3  4  5  16  17  18  19  20  21  22  23  24  25 0
 3-21G
 ****
 27  28  30  31  32  35  37  42  43  44  45  46  47 0
 3-21G
 ****
 48  49 0
 3-21G
 ****


