%nproc=1
%NoSave
%Mem=1900MB
#P OB98/GEN NMR

erre ene a

0 1
  C       88.028    -187.772     312.996
  O       88.703    -188.529     313.981
  H       87.014    -187.564     313.348
  H       87.969    -188.334     312.059
  H       88.545    -186.822     312.831
  P       90.209    -188.971     313.642
  C       90.863    -189.156     316.139
  O       90.664    -189.841     314.910
  C       91.023    -190.152     317.289
  O       89.735    -190.587     317.755
  C       91.793    -191.416     316.919
  O       93.190    -191.189     316.999
  C       91.320    -192.368     318.009
  O       92.065    -192.124     319.218
  C       89.852    -191.959     318.204
  N       87.153    -196.332     318.217
  C       88.173    -195.906     318.992
  N       88.879    -194.758     318.899
  C       88.431    -194.002     317.882
  C       87.402    -194.311     317.004
  C       86.745    -195.535     317.206
  N       85.703    -195.970     316.407
  N       87.226    -193.299     316.080
  C       88.095    -192.373     316.434
  N       88.873    -192.767     317.495
  O       91.129    -187.872     313.232
  O       89.952    -190.094     312.527
  H       93.000    -192.294     319.011
  H       89.186    -190.647     312.768
  H       88.466    -196.578     319.797
  H       88.187    -191.395     315.973
  H       89.564    -191.983     319.261
  H       91.477    -193.418     317.747
  H       91.487    -191.810     315.940
  H       91.514    -189.629     318.121
  H       90.016    -188.491     316.344
  H       85.424    -196.931     316.500
  H       85.488    -195.430     315.578
  H       91.767    -188.545     316.038
  P       94.219    -192.044     316.116
  C       95.596    -189.914     315.692
  O       95.608    -191.242     316.205
  O       93.743    -192.370     314.746
  O       94.512    -193.347     316.999
  H       94.908    -194.049     316.448
  H       96.568    -189.480     315.803
  H       94.881    -189.330     316.232
  H       95.331    -189.934     314.656

 6  7  8  9  10  11  12  13  14  15  25  28  32  33  34  35 0
 6-311+G(2d,p)
 ****
 36  39  40 0
 6-311+G(2d,p)
 ****
 1  2  3  4  5  16  17  18  19  20  21  22  23  24 0
 3-21G
 ****
 26  27  29  30  31  37  38  41  42  43  44  45  46  47 0
 3-21G
 ****
 48 0
 3-21G
 ****


