%nproc=1
%NoSave
%Mem=1900MB
#P OB98/GEN NMR

erre ene a

0 1
  C      -83.157     206.538      87.226
  O      -81.889     206.203      86.702
  P      -80.622     207.169      86.886
  C      -80.059     207.101      84.379
  O      -79.615     206.799      85.692
  C      -79.247     206.340      83.328
  O      -77.854     206.753      83.400
  C      -79.286     204.814      83.467
  O      -79.223     204.285      82.140
  C      -78.001     204.523      84.218
  O      -77.590     203.166      84.095
  C      -77.060     205.561      83.594
  N      -75.889     205.810      84.425
  C      -74.661     205.914      83.765
  O      -74.592     205.722      82.550
  N      -73.534     206.179      84.501
  C      -73.612     206.229      85.795
  N      -72.464     206.500      86.472
  C      -74.865     205.999      86.537
  C      -75.955     205.812      85.798
  O      -80.014     207.163      88.247
  O      -81.174     208.603      86.439
  H      -76.673     203.087      84.437
  H      -81.728     208.998      87.159
  H      -74.871     205.995      87.617
  H      -76.920     205.634      86.254
  H      -76.720     205.230      82.603
  H      -78.142     204.731      85.285
  H      -80.170     204.446      83.990
  H      -79.620     206.635      82.336
  H      -71.630     206.667      85.921
  H      -79.930     208.174      84.215
  H      -72.431     206.643      87.469
  H      -81.127     206.875      84.282
  P      -80.455     203.478      81.506
  C      -79.036     201.366      81.242
  O      -79.835     202.330      80.580
  O      -81.492     204.329      80.843
  O      -81.073     202.661      82.738
  H      -81.964     202.346      82.504
  H      -78.907     200.499      80.586
  H      -79.506     201.039      82.174
  H      -78.054     201.794      81.461
  H      -83.856     205.762      86.992
  H      -83.489     207.459      86.795
  H      -83.087     206.647      88.288

 3  4  5  6  7  8  9  10  11  12  13  23  27  28  29  30  32 0
 6-311+G(2d,p)
 ****
 34  35 0
 6-311+G(2d,p)
 ****
 1  2  14  15  16  17  18  19  20  21  22  24  25  26 0
 3-21G
 ****
 31  33  36  37  38  39  40  41  42  43  44  45  46 0
 3-21G
 ****


