%nproc=1
%NoSave
%Mem=1900MB
#P OB98/GEN NMR

erre ene a

0 1
  C      -14.601     198.952     160.851
  O      -13.436     199.655     161.238
  H      -15.470     199.445     161.296
  H      -14.555     197.923     161.216
  H      -14.709     198.961     159.764
  P      -12.060     199.205     160.540
  C      -11.947     200.055     158.057
  O      -11.755     200.329     159.435
  C      -12.482     201.292     157.334
  O      -13.693     201.730     157.996
  C      -11.505     202.471     157.320
  O      -11.624     203.146     156.064
  C      -12.012     203.365     158.439
  O      -11.610     204.722     158.261
  C      -13.526     203.112     158.375
  N      -14.192     203.402     159.645
  C      -15.214     204.356     159.615
  O      -15.503     204.925     158.561
  N      -15.854     204.676     160.786
  C      -15.462     204.143     161.904
  N      -16.126     204.518     163.031
  C      -14.353     203.170     161.988
  C      -13.777     202.842     160.834
  O      -12.531     197.940     159.681
  O      -10.948     198.930     161.499
  H      -10.632     204.764     158.354
  H      -13.386     198.065     159.238
  H      -14.055     202.765     162.944
  H      -12.959     202.130     160.803
  H      -13.987     203.729     157.594
  H      -11.613     203.024     159.402
  H      -10.469     202.176     157.482
  H      -12.767     201.001     156.317
  H      -16.868     205.203     162.932
  H      -12.651     199.226     157.930
  H      -15.873     204.210     163.958
  H      -10.985     199.754     157.634
  P      -10.295     203.578     155.280
  C       -9.941     201.351     154.032
  O      -10.197     202.741     153.913
  O       -9.043     203.612     156.095
  O      -10.660     205.053     154.751
  H       -9.860     205.609     154.827
  H       -9.900     200.911     153.057
  H      -10.724     200.891     154.598
  H       -9.006     201.202     154.531

 6  7  8  9  10  11  12  13  14  15  16  26  30  31  32  33  35 0
 6-311+G(2d,p)
 ****
 37  38 0
 6-311+G(2d,p)
 ****
 1  2  3  4  5  17  18  19  20  21  22  23  24  25 0
 3-21G
 ****
 27  28  29  34  36  39  40  41  42  43  44  45  46 0
 3-21G
 ****


