%nproc=1
%NoSave
%Mem=1900MB
#P OB98/GEN NMR

erre ene a

0 1
  C      267.630    -261.971     384.335
  O      268.592    -261.520     385.270
  H      267.324    -262.985     384.611
  H      268.062    -262.000     383.329
  H      266.749    -261.328     384.341
  P      269.097    -260.001     385.185
  C      270.274    -258.635     383.339
  O      270.105    -259.910     383.944
  C      271.735    -258.192     383.462
  O      272.596    -259.100     382.745
  C      272.003    -256.803     382.895
  O      271.546    -255.791     383.766
  C      273.515    -256.861     382.720
  O      274.187    -256.605     383.966
  C      273.731    -258.329     382.271
  N      273.889    -258.458     380.822
  C      275.183    -258.679     380.363
  O      276.171    -258.728     381.106
  N      275.324    -258.814     379.002
  C      274.338    -258.636     378.081
  O      274.528    -258.679     376.870
  C      272.994    -258.383     378.619
  C      272.835    -258.302     379.943
  O      269.613    -259.419     386.459
  O      267.805    -259.208     384.659
  H      275.135    -256.506     383.751
  H      267.411    -258.711     385.398
  H      276.253    -258.957     378.657
  H      272.181    -258.246     377.922
  H      271.846    -258.115     380.362
  H      274.621    -258.751     382.755
  H      273.880    -256.125     382.004
  H      271.547    -256.710     381.905
  H      272.010    -258.233     384.529
  H      269.629    -257.916     383.855
  H      269.977    -258.694     382.283
  P      271.140    -254.361     383.179
  C      272.406    -252.262     382.404
  O      272.438    -253.421     383.224
  O      269.897    -253.755     383.754
  O      270.955    -254.637     381.606
  H      270.031    -254.421     381.342
  H      273.321    -251.719     382.518
  H      271.584    -251.642     382.695
  H      272.289    -252.552     381.381

 6  7  8  9  10  11  12  13  14  15  16  26  31  32  33  34  35 0
 6-311+G(2d,p)
 ****
 36  37 0
 6-311+G(2d,p)
 ****
 1  2  3  4  5  17  18  19  20  21  22  23  24  25 0
 3-21G
 ****
 27  28  29  30  38  39  40  41  42  43  44  45 0
 3-21G
 ****


