%nproc=1
%NoSave
%Mem=1900MB
#P OB98/GEN NMR

erre ene a

0 1
  C      406.694    -234.718     -59.151
  O      407.979    -234.787     -59.738
  H      406.678    -233.886     -58.442
  H      406.459    -235.640     -58.615
  H      405.941    -234.533     -59.920
  P      408.345    -236.087     -60.605
  C      408.891    -238.541     -60.028
  O      408.347    -237.312     -59.560
  C      409.869    -239.137     -59.015
  O      411.025    -238.287     -58.860
  C      409.300    -239.277     -57.613
  O      408.261    -240.223     -57.487
  C      410.563    -239.445     -56.778
  O      411.043    -240.787     -56.781
  C      411.551    -238.525     -57.534
  N      411.803    -237.276     -56.824
  C      412.975    -237.225     -56.081
  O      413.766    -238.165     -55.987
  N      413.205    -236.056     -55.409
  C      412.371    -234.977     -55.373
  O      412.624    -233.960     -54.733
  C      411.125    -235.104     -56.148
  C      410.901    -236.231     -56.830
  O      409.597    -235.988     -61.426
  O      407.026    -236.355     -61.472
  H      410.342    -241.342     -56.395
  H      407.209    -236.975     -62.218
  H      414.060    -235.991     -54.874
  H      410.434    -234.272     -56.131
  H      409.990    -236.348     -57.410
  H      412.515    -239.034     -57.673
  H      410.408    -239.159     -55.735
  H      408.863    -238.314     -57.320
  H      410.214    -240.101     -59.403
  H      409.423    -238.337     -60.964
  H      408.079    -239.248     -60.231
  P      406.796    -239.867     -56.974
  C      405.431    -240.152     -54.760
  O      406.674    -240.308     -55.437
  O      405.665    -240.201     -57.890
  O      406.873    -238.258     -56.856
  H      405.983    -237.911     -57.083
  H      405.529    -240.494     -53.751
  H      404.678    -240.726     -55.259
  H      405.152    -239.119     -54.761

 6  7  8  9  10  11  12  13  14  15  16  26  31  32  33  34  35 0
 6-311+G(2d,p)
 ****
 36  37 0
 6-311+G(2d,p)
 ****
 1  2  3  4  5  17  18  19  20  21  22  23  24  25 0
 3-21G
 ****
 27  28  29  30  38  39  40  41  42  43  44  45 0
 3-21G
 ****


