%nproc=1
%NoSave
%Mem=1900MB
#P OB98/GEN NMR

erre ene a

0 1
  C     -211.248     228.482     262.643
  O     -210.717     228.787     261.365
  P     -211.685     229.066     260.116
  C     -210.434     227.366     258.642
  O     -211.683     227.729     259.230
  C     -210.595     227.115     257.147
  O     -209.365     226.555     256.626
  C     -211.718     226.131     256.817
  O     -212.347     226.538     255.602
  C     -211.000     224.816     256.562
  O     -211.759     223.965     255.693
  C     -209.667     225.304     255.988
  N     -207.631     220.724     254.854
  C     -208.732     221.354     254.384
  N     -209.228     222.560     254.747
  C     -208.430     223.142     255.660
  C     -207.276     222.618     256.231
  C     -206.879     221.341     255.795
  N     -205.753     220.696     256.264
  N     -206.743     223.497     257.157
  C     -207.548     224.537     257.134
  N     -208.576     224.378     256.238
  O     -211.395     230.314     259.360
  O     -213.155     229.076     260.752
  H     -211.147     223.279     255.346
  H     -213.700     229.760     260.322
  H     -209.294     220.828     253.623
  H     -207.442     225.427     257.738
  H     -209.731     225.480     254.908
  H     -210.856     224.284     257.513
  H     -212.460     226.049     257.612
  H     -210.760     228.074     256.646
  H     -210.079     226.452     259.127
  H     -205.485     219.844     255.802
  H     -205.100     221.236     256.828
  H     -209.702     228.160     258.821
  P     -213.811     225.925     255.321
  C     -212.919     224.579     253.274
  O     -213.537     224.550     254.543
  O     -214.715     226.909     254.665
  O     -214.249     225.494     256.802
  H     -213.468     225.332     257.374
  H     -212.850     223.554     252.895
  H     -211.905     224.988     253.356
  H     -213.509     225.176     252.578
  H     -210.446     228.331     263.335
  H     -211.838     227.592     262.581
  H     -211.860     229.293     262.978

 3  4  5  6  7  8  9  10  11  12  22  25  29  30  31  32 0
 6-311+G(2d,p)
 ****
 33  36  37 0
 6-311+G(2d,p)
 ****
 1  2  13  14  15  16  17  18  19  20  21  23  24  26 0
 3-21G
 ****
 27  28  34  35  38  39  40  41  42  43  44  45  46  47  48 0
 3-21G
 ****


