%nproc=1
%NoSave
%Mem=1900MB
#P OB98/GEN NMR

erre ene a

0 1
  C     -691.203    -846.643    -599.789
  O     -692.272    -845.714    -599.878
  H     -691.036    -847.080    -600.778
  H     -691.472    -847.447    -599.103
  H     -690.283    -846.163    -599.460
  P     -692.433    -844.680    -598.663
  C     -692.674    -842.454    -599.986
  O     -693.321    -843.459    -599.226
  C     -693.698    -841.557    -600.671
  O     -694.367    -842.326    -601.719
  C     -694.783    -841.009    -599.723
  O     -695.126    -839.667    -600.129
  C     -695.984    -841.914    -600.028
  O     -697.225    -841.301    -599.684
  C     -695.775    -842.128    -601.533
  N     -700.371    -844.179    -601.344
  C     -699.923    -842.932    -600.950
  N     -700.813    -842.118    -600.349
  N     -698.685    -842.514    -601.115
  C     -697.902    -843.418    -601.741
  C     -698.214    -844.682    -602.182
  C     -699.585    -845.143    -601.973
  O     -700.029    -846.240    -602.289
  N     -697.120    -845.313    -602.707
  C     -696.139    -844.441    -602.574
  N     -696.558    -843.285    -601.992
  O     -690.963    -844.047    -598.536
  O     -692.896    -845.273    -597.379
  H     -697.320    -840.492    -600.217
  H     -690.452    -844.531    -597.861
  H     -701.322    -844.451    -601.184
  H     -695.107    -844.601    -602.864
  H     -696.104    -841.273    -602.123
  H     -695.890    -842.844    -599.469
  H     -701.793    -842.355    -600.219
  H     -694.507    -841.013    -598.673
  H     -700.520    -841.182    -600.099
  H     -693.170    -840.732    -601.166
  H     -692.055    -842.933    -600.754
  H     -692.024    -841.856    -599.326
  P     -696.072    -838.814    -599.157
  C     -694.375    -836.913    -598.675
  O     -695.625    -837.272    -599.237
  O     -695.614    -839.259    -597.693
  O     -697.536    -839.062    -599.367
  H     -696.365    -839.274    -597.094
  H     -694.215    -835.863    -598.803
  H     -693.594    -837.455    -599.166
  H     -694.372    -837.150    -597.632

 6  7  8  9  10  11  12  13  14  15  26  29  33  34 0
 6-311+G(2d,p)
 ****
 36  38  39  40  41 0
 6-311+G(2d,p)
 ****
 1  2  3  4  5  16  17  18  19  20  21  22  23  24  25 0
 3-21G
 ****
 27  28  30  31  32  35  37  42  43  44  45  46  47 0
 3-21G
 ****
 48  49 0
 3-21G
 ****


