%nproc=1
%NoSave
%Mem=1900MB
#P OB98/GEN NMR

erre ene a

0 1
  C     -868.938    -250.280     -17.517
  O     -869.710    -250.982     -16.558
  P     -869.463    -252.564     -16.413
  C     -871.864    -252.947     -17.413
  O     -870.480    -253.268     -17.429
  C     -872.376    -252.731     -18.845
  O     -871.473    -251.851     -19.557
  C     -872.458    -253.997     -19.687
  O     -873.597    -254.774     -19.359
  C     -872.471    -253.406     -21.099
  O     -873.802    -252.944     -21.426
  C     -871.517    -252.209     -20.953
  N     -870.176    -252.472     -21.469
  C     -870.008    -252.318     -22.842
  O     -870.915    -251.977     -23.605
  N     -868.749    -252.601     -23.327
  C     -867.698    -253.059     -22.597
  O     -866.610    -253.335     -23.076
  C     -867.950    -253.244     -21.153
  C     -869.147    -252.933     -20.665
  O     -870.079    -252.828     -14.963
  O     -868.023    -252.943     -16.571
  H     -870.778    -252.180     -14.744
  H     -873.714    -252.400     -22.235
  H     -868.593    -252.472     -24.313
  H     -867.140    -253.611     -20.537
  H     -869.360    -253.072     -19.616
  H     -871.926    -251.333     -21.479
  H     -872.179    -254.132     -21.858
  H     -871.546    -254.585     -19.548
  H     -873.351    -252.233     -18.779
  H     -872.017    -252.032     -16.827
  H     -872.413    -253.767     -16.931
  P     -873.303    -256.210     -18.699
  C     -873.781    -257.264     -21.042
  O     -872.943    -257.204     -19.910
  O     -874.791    -256.656     -18.256
  O     -872.311    -256.187     -17.578
  H     -875.453    -256.449     -18.922
  H     -873.215    -257.691     -21.870
  H     -874.150    -256.268     -21.330
  H     -874.637    -257.914     -20.833
  H     -869.207    -249.245     -17.503
  H     -869.125    -250.684     -18.490
  H     -867.899    -250.382     -17.282

 3  4  5  6  7  8  9  10  11  12  13  24  28  29  30  31  32 0
 6-311+G(2d,p)
 ****
 33  34 0
 6-311+G(2d,p)
 ****
 1  2  14  15  16  17  18  19  20  21  22  23  25  26  27 0
 3-21G
 ****
 35  36  37  38  39  40  41  42  43  44  45 0
 3-21G
 ****


