%nproc=1
%NoSave
%Mem=1900MB
#P OB98/GEN NMR

erre ene a

0 1
  C     -448.702     544.985    -381.487
  O     -448.582     546.379    -381.713
  P     -449.602     547.050    -382.764
  C     -450.834     548.726    -381.207
  O     -450.900     547.498    -381.928
  C     -452.165     549.478    -381.294
  O     -452.471     549.736    -382.694
  C     -453.365     548.723    -380.695
  O     -454.232     549.714    -380.122
  C     -453.993     548.102    -381.934
  O     -455.327     547.657    -381.739
  C     -453.801     549.222    -382.934
  N     -457.070     548.620    -386.824
  C     -457.226     549.165    -385.595
  N     -456.306     549.291    -384.612
  C     -455.110     548.811    -385.009
  C     -454.805     548.229    -386.225
  C     -455.855     548.143    -387.166
  N     -455.692     547.582    -388.416
  N     -453.485     547.839    -386.261
  C     -452.996     548.174    -385.089
  N     -453.943     548.785    -384.310
  O     -450.132     545.798    -383.606
  O     -449.001     548.106    -383.638
  H     -455.884     548.387    -381.395
  H     -450.230     546.023    -384.544
  H     -458.215     549.526    -385.362
  H     -451.990     547.987    -384.748
  H     -454.513     550.046    -382.769
  H     -453.403     547.218    -382.223
  H     -453.086     548.005    -379.921
  H     -452.054     550.449    -380.803
  H     -450.054     549.368    -381.637
  H     -456.533     547.387    -388.933
  H     -454.852     547.051    -388.581
  H     -450.570     548.519    -380.168
  P     -455.083     549.327    -378.820
  C     -453.845     550.686    -377.020
  O     -454.022     549.412    -377.609
  O     -455.239     547.738    -379.007
  O     -456.371     550.054    -378.645
  H     -454.380     547.321    -379.175
  H     -453.171     550.580    -376.165
  H     -454.805     551.081    -376.679
  H     -453.390     551.366    -377.744
  H     -447.969     544.675    -380.772
  H     -448.548     544.460    -382.407
  H     -449.680     544.767    -381.112

 3  4  5  6  7  8  9  10  11  12  22  25  29  30  31  32 0
 6-311+G(2d,p)
 ****
 33  36  37 0
 6-311+G(2d,p)
 ****
 1  2  13  14  15  16  17  18  19  20  21  23  24  26 0
 3-21G
 ****
 27  28  34  35  38  39  40  41  42  43  44  45  46  47  48 0
 3-21G
 ****


