%nproc=1
%NoSave
%Mem=1900MB
#P OB98/GEN NMR

erre ene a

0 1
  C     -248.902    -134.999    -265.994
  O     -247.520    -135.341    -265.931
  P     -246.459    -134.183    -265.614
  C     -246.485    -134.266    -262.970
  O     -246.741    -133.569    -264.168
  C     -245.649    -133.377    -262.034
  O     -246.385    -132.182    -261.691
  C     -245.271    -134.064    -260.728
  O     -244.084    -134.824    -260.846
  C     -245.145    -132.886    -259.781
  O     -243.887    -132.213    -259.986
  C     -246.318    -131.992    -260.249
  N     -247.656    -132.247    -259.675
  C     -247.873    -132.069    -258.312
  O     -247.009    -131.711    -257.515
  N     -249.146    -132.308    -257.866
  C     -250.244    -132.532    -258.647
  O     -251.371    -132.682    -258.196
  C     -249.991    -132.563    -260.091
  C     -248.736    -132.433    -260.531
  O     -246.869    -133.009    -266.616
  O     -245.029    -134.593    -265.787
  H     -243.835    -131.492    -259.333
  H     -246.157    -132.847    -267.262
  H     -249.303    -132.254    -256.872
  H     -250.839    -132.692    -260.747
  H     -248.539    -132.455    -261.599
  H     -246.092    -130.935    -260.065
  H     -245.147    -133.210    -258.742
  H     -246.100    -134.687    -260.375
  H     -244.737    -133.071    -262.569
  H     -245.954    -135.201    -263.166
  H     -247.433    -134.535    -262.490
  P     -244.085    -136.375    -260.451
  C     -244.832    -137.180    -262.769
  O     -245.179    -137.064    -261.403
  O     -244.211    -136.681    -258.996
  O     -242.705    -136.920    -261.062
  H     -242.000    -136.930    -260.374
  H     -245.582    -137.801    -263.271
  H     -243.851    -137.655    -262.876
  H     -244.822    -136.194    -263.237
  H     -249.477    -135.875    -266.213
  H     -249.055    -134.271    -266.763
  H     -249.213    -134.594    -265.053

 3  4  5  6  7  8  9  10  11  12  13  23  28  29  30  31  32 0
 6-311+G(2d,p)
 ****
 33  34 0
 6-311+G(2d,p)
 ****
 1  2  14  15  16  17  18  19  20  21  22  24  25  26  27 0
 3-21G
 ****
 35  36  37  38  39  40  41  42  43  44  45 0
 3-21G
 ****


