%nproc=1
%NoSave
%Mem=1900MB
#P OB98/GEN NMR

erre ene a

0 1
  C      218.742     360.914      96.961
  O      217.461     361.500      96.806
  H      219.022     360.964      98.014
  H      219.477     361.469      96.373
  H      218.719     359.865      96.647
  P      216.779     361.371      95.356
  C      214.868     359.625      95.794
  O      216.167     359.889      95.298
  C      214.899     359.395      97.305
  O      215.388     360.603      97.945
  C      213.531     359.066      97.910
  O      213.725     358.132      98.976
  C      213.070     360.398      98.481
  O      212.104     360.228      99.516
  C      214.404     361.013      98.930
  N      214.335     362.466      99.045
  C      213.605     362.971     100.124
  O      213.048     362.204     100.909
  N      213.481     364.330     100.268
  C      213.991     365.118      99.372
  N      213.821     366.456      99.552
  C      214.736     364.629      98.190
  C      214.870     363.305      98.096
  O      218.060     361.290      94.398
  O      215.827     362.469      95.023
  H      211.838     361.117      99.841
  H      218.756     360.698      94.731
  H      215.134     365.325      97.464
  H      215.413     362.859      97.271
  H      214.717     360.597      99.895
  H      212.614     361.005      97.690
  H      212.836     358.650      97.181
  H      215.627     358.605      97.522
  H      213.286     366.746     100.363
  H      214.445     358.738      95.303
  H      214.122     367.156      98.895
  H      214.229     360.481      95.551
  P      213.457     356.579      98.721
  C      215.526     355.102      99.213
  O      214.817     355.873      98.247
  O      212.255     356.247      97.902
  O      213.279     356.005     100.214
  H      212.552     355.356     100.201
  H      216.407     354.692      98.765
  H      214.901     354.308      99.564
  H      215.803     355.728     100.036

 6  7  8  9  10  11  12  13  14  15  16  26  30  31  32  33  35 0
 6-311+G(2d,p)
 ****
 37  38 0
 6-311+G(2d,p)
 ****
 1  2  3  4  5  17  18  19  20  21  22  23  24  25 0
 3-21G
 ****
 27  28  29  34  36  39  40  41  42  43  44  45  46 0
 3-21G
 ****


