%nproc=1
%NoSave
%Mem=1900MB
#P OB98/GEN NMR

erre ene a

0 1
  C        2.160      76.541     -11.564
  O        1.787      75.197     -11.778
  P        2.027      74.078     -10.658
  C        4.233      73.433     -11.822
  O        3.613      73.815     -10.599
  C        5.719      73.134     -11.593
  O        6.322      74.269     -10.897
  C        5.951      71.874     -10.734
  O        6.839      70.919     -11.316
  C        6.396      72.454      -9.401
  O        7.111      71.544      -8.588
  C        7.140      73.718      -9.846
  N        7.348      74.660      -8.749
  C        8.497      74.497      -7.982
  O        9.342      73.627      -8.173
  N        8.631      75.343      -6.916
  C        7.699      76.237      -6.481
  O        7.843      76.894      -5.459
  C        6.487      76.338      -7.309
  C        6.376      75.577      -8.401
  O        1.205      72.843     -10.802
  O        1.773      74.874      -9.290
  H        7.464      72.037      -7.825
  H        2.360      75.636      -9.146
  H        9.459      75.235      -6.351
  H        5.726      77.032      -6.983
  H        5.494      75.630      -9.031
  H        8.111      73.478     -10.282
  H        5.495      72.740      -8.844
  H        5.017      71.317     -10.595
  H        6.195      73.036     -12.573
  H        4.139      74.254     -12.536
  H        3.715      72.567     -12.247
  P        6.612      69.334     -11.317
  C        8.420      69.241      -9.450
  O        7.194      68.745      -9.948
  O        7.063      68.629     -12.551
  O        5.028      69.186     -11.129
  H        4.725      68.362     -11.557
  H        8.905      68.454      -8.867
  H        8.223      70.092      -8.792
  H        9.089      69.549     -10.258
  H        1.915      77.121     -12.429
  H        3.214      76.595     -11.385
  H        1.634      76.926     -10.715

 3  4  5  6  7  8  9  10  11  12  13  23  28  29  30  31  32 0
 6-311+G(2d,p)
 ****
 33  34 0
 6-311+G(2d,p)
 ****
 1  2  14  15  16  17  18  19  20  21  22  24  25  26  27 0
 3-21G
 ****
 35  36  37  38  39  40  41  42  43  44  45 0
 3-21G
 ****


