%nproc=1
%NoSave
%Mem=1900MB
#P OB98/GEN NMR

erre ene a

0 1
  C     -121.924     -19.329      20.144
  O     -123.180     -19.710      20.716
  P     -123.741     -21.178      20.394
  C     -125.438     -22.235      18.728
  O     -124.802     -21.056      19.196
  C     -126.312     -21.920      17.506
  O     -127.318     -20.925      17.814
  C     -125.526     -21.369      16.320
  O     -124.934     -22.409      15.554
  C     -126.639     -20.708      15.518
  O     -127.354     -21.702      14.759
  C     -127.536     -20.125      16.623
  N     -127.534     -15.432      14.724
  C     -127.909     -16.630      14.142
  N     -128.363     -16.564      12.867
  N     -127.852     -17.785      14.752
  C     -127.396     -17.695      16.024
  C     -126.991     -16.571      16.712
  C     -127.050     -15.300      16.019
  O     -126.714     -14.209      16.478
  N     -126.591     -16.880      17.987
  C     -126.767     -18.185      18.080
  N     -127.240     -18.729      16.910
  O     -124.674     -21.489      21.660
  O     -122.680     -22.214      20.220
  H     -126.688     -22.187      14.236
  H     -124.720     -22.451      21.812
  H     -127.594     -14.573      14.205
  H     -126.571     -18.774      18.969
  H     -128.602     -20.184      16.372
  H     -126.256     -19.976      14.799
  H     -128.480     -15.704      12.355
  H     -124.793     -20.617      16.645
  H     -128.674     -17.429      12.437
  H     -126.822     -22.845      17.202
  H     -126.053     -22.675      19.518
  H     -124.675     -22.982      18.492
  P     -123.387     -22.250      15.157
  C     -122.079     -20.769      13.468
  O     -123.341     -21.168      13.979
  O     -123.065     -23.639      14.423
  O     -122.465     -22.010      16.308
  H     -122.133     -23.886      14.569
  H     -122.240     -20.158      12.576
  H     -121.473     -21.637      13.200
  H     -121.549     -20.164      14.215
  H     -121.683     -18.331      20.446
  H     -121.990     -19.373      19.077
  H     -121.161     -19.998      20.482

 3  4  5  6  7  8  9  10  11  12  23  26  30  31 0
 6-311+G(2d,p)
 ****
 33  35  36  37  38 0
 6-311+G(2d,p)
 ****
 1  2  13  14  15  16  17  18  19  20  21  22  24  25 0
 3-21G
 ****
 27  28  29  32  34  39  40  41  42  43  44  45  46  47  48  49 0
 3-21G
 ****


