%nproc=1
%NoSave
%Mem=1900MB
#P OB98/GEN NMR

erre ene a

0 1
  C     -255.551     313.307     159.741
  O     -256.221     312.603     158.684
  P     -257.618     311.837     158.880
  C     -259.202     313.872     159.097
  O     -258.786     312.773     158.297
  C     -260.731     313.964     159.143
  O     -261.151     314.761     160.275
  C     -261.375     314.646     157.945
  O     -261.359     313.837     156.787
  C     -262.773     314.942     158.488
  O     -263.637     313.806     158.348
  C     -262.496     315.212     159.982
  N     -262.672     316.607     160.347
  C     -263.968     317.008     160.682
  O     -264.910     316.221     160.583
  N     -264.165     318.300     161.107
  C     -263.179     319.140     161.096
  N     -263.432     320.402     161.542
  C     -261.829     318.794     160.617
  C     -261.647     317.523     160.265
  O     -257.862     311.370     160.274
  O     -257.568     310.605     157.857
  H     -258.142     309.887     158.186
  H     -264.476     314.030     158.797
  H     -261.044     319.538     160.583
  H     -260.679     317.178     159.915
  H     -263.148     314.590     160.606
  H     -263.251     315.777     157.965
  H     -260.856     315.592     157.747
  H     -261.129     312.947     159.264
  H     -264.366     320.604     161.872
  H     -258.805     314.794     158.656
  H     -262.727     321.125     161.595
  H     -258.785     313.763     160.105
  P     -260.637     314.438     155.489
  C     -258.329     313.272     155.280
  O     -259.685     313.299     154.885
  O     -259.618     315.515     156.089
  O     -261.563     315.066     154.500
  H     -259.586     316.299     155.510
  H     -257.962     312.245     155.208
  H     -258.197     313.626     156.307
  H     -257.743     313.902     154.603
  H     -254.643     313.732     159.367
  H     -255.325     312.627     160.535
  H     -256.185     314.086     160.108

 3  4  5  6  7  8  9  10  11  12  13  24  27  28  29  30  32 0
 6-311+G(2d,p)
 ****
 34  35 0
 6-311+G(2d,p)
 ****
 1  2  14  15  16  17  18  19  20  21  22  23  25  26 0
 3-21G
 ****
 31  33  36  37  38  39  40  41  42  43  44  45  46 0
 3-21G
 ****


