%nproc=1
%NoSave
%Mem=1900MB
#P OB98/GEN NMR

erre ene a

0 1
  C      245.251      76.855     207.465
  O      245.488      77.588     206.281
  H      245.762      75.892     207.391
  H      244.179      76.674     207.574
  H      245.631      77.391     208.339
  P      245.095      79.142     206.293
  C      243.420      79.092     204.317
  O      244.682      79.534     204.790
  C      243.138      79.672     202.930
  O      243.288      81.113     202.989
  C      244.081      79.149     201.839
  O      243.334      78.970     200.631
  C      245.077      80.280     201.660
  O      245.675      80.286     200.366
  C      244.205      81.498     201.948
  N      245.137      86.363     201.028
  C      244.189      85.518     200.488
  N      243.367      86.047     199.554
  N      244.056      84.264     200.830
  C      244.921      83.883     201.800
  C      245.907      84.621     202.412
  C      246.062      85.999     202.001
  O      246.897      86.790     202.427
  N      246.600      83.865     203.324
  C      246.033      82.674     203.263
  N      245.006      82.637     202.359
  O      246.505      79.872     206.498
  O      244.114      79.547     207.342
  H      245.992      81.198     200.192
  H      246.511      80.341     207.352
  H      245.204      87.317     200.718
  H      246.330      81.809     203.841
  H      243.621      81.810     201.073
  H      245.877      80.188     202.405
  H      243.382      87.015     199.277
  H      244.569      78.211     202.106
  H      242.640      85.455     199.169
  H      242.092      79.471     202.674
  H      242.643      79.423     205.014
  H      243.413      77.998     204.270
  P      243.164      77.466     200.098
  C      243.715      78.025     197.630
  O      242.753      77.525     198.546
  O      241.826      76.971     200.825
  O      244.319      76.577     200.419
  H      242.046      76.327     201.522
  H      243.308      78.007     196.640
  H      244.593      77.414     197.666
  H      243.969      79.031     197.893

 6  7  8  9  10  11  12  13  14  15  26  29  33  34 0
 6-311+G(2d,p)
 ****
 36  38  39  40  41 0
 6-311+G(2d,p)
 ****
 1  2  3  4  5  16  17  18  19  20  21  22  23  24  25 0
 3-21G
 ****
 27  28  30  31  32  35  37  42  43  44  45  46  47 0
 3-21G
 ****
 48  49 0
 3-21G
 ****


