%nproc=1
%NoSave
%Mem=1900MB
#P OB98/GEN NMR

erre ene a

0 1
  C     -257.516     -14.893       9.333
  O     -257.709     -14.728      10.722
  H     -256.579     -15.435       9.171
  H     -257.454     -13.923       8.833
  H     -258.341     -15.481       8.910
  P     -259.020     -13.920      11.173
  C     -257.659     -11.743      11.430
  O     -258.718     -12.401      10.744
  C     -257.754     -10.227      11.240
  O     -258.874      -9.736      12.018
  C     -256.497      -9.475      11.701
  O     -256.242      -8.396      10.802
  C     -256.890      -8.928      13.064
  O     -256.150      -7.765      13.415
  C     -258.393      -8.687      12.875
  N     -259.948      -5.816      16.799
  C     -259.381      -5.495      15.615
  N     -259.010      -6.331      14.616
  C     -259.323      -7.602      14.917
  C     -259.893      -8.082      16.089
  C     -260.206      -7.121      17.062
  N     -260.759      -7.441      18.283
  N     -260.021      -9.457      16.034
  C     -259.543      -9.800      14.854
  N     -259.095      -8.719      14.146
  O     -259.438     -14.114      12.590
  O     -260.080     -14.386      10.073
  H     -256.521      -7.401      14.251
  H     -259.692     -14.391       9.178
  H     -259.192      -4.438      15.449
  H     -259.487     -10.815      14.470
  H     -258.612      -7.720      12.406
  H     -256.714      -9.693      13.828
  H     -255.621     -10.124      11.759
  H     -257.980     -10.019      10.184
  H     -256.692     -12.102      11.061
  H     -260.962      -6.682      18.925
  H     -260.975      -8.399      18.495
  H     -257.739     -12.000      12.494
  P     -255.361      -8.682       9.496
  C     -253.073      -8.010      10.505
  O     -253.871      -9.060       9.956
  O     -255.452      -7.659       8.406
  O     -255.933     -10.100       8.992
  H     -255.954     -10.107       8.021
  H     -252.110      -8.395      10.768
  H     -253.551      -7.618      11.378
  H     -252.960      -7.231       9.780

 6  7  8  9  10  11  12  13  14  15  25  28  32  33  34  35 0
 6-311+G(2d,p)
 ****
 36  39  40 0
 6-311+G(2d,p)
 ****
 1  2  3  4  5  16  17  18  19  20  21  22  23  24 0
 3-21G
 ****
 26  27  29  30  31  37  38  41  42  43  44  45  46  47 0
 3-21G
 ****
 48 0
 3-21G
 ****


