%nproc=1
%NoSave
%Mem=1900MB
#P OB98/GEN NMR

erre ene a

0 1
  C     -114.002    -245.925    -485.971
  O     -114.013    -247.220    -485.401
  H     -114.493    -245.231    -485.281
  H     -114.545    -245.926    -486.919
  H     -112.971    -245.592    -486.133
  P     -113.424    -248.404    -486.312
  C     -111.073    -248.512    -485.183
  O     -111.841    -248.127    -486.314
  C     -110.316    -249.799    -485.486
  O     -109.528    -249.654    -486.687
  C     -109.327    -250.215    -484.402
  O     -109.958    -250.835    -483.288
  C     -108.459    -251.185    -485.175
  O     -109.155    -252.436    -485.340
  C     -108.317    -250.446    -486.530
  N     -107.129    -249.592    -486.593
  C     -105.912    -250.177    -486.222
  O     -105.870    -251.351    -485.846
  N     -104.775    -249.410    -486.245
  C     -104.839    -248.170    -486.622
  N     -103.681    -247.449    -486.610
  C     -106.091    -247.518    -487.035
  C     -107.182    -248.274    -486.998
  O     -113.850    -247.986    -487.798
  O     -113.823    -249.791    -485.926
  H     -109.624    -252.610    -484.507
  H     -113.425    -248.591    -488.453
  H     -106.099    -246.477    -487.329
  H     -108.143    -247.861    -487.289
  H     -108.279    -251.160    -487.362
  H     -107.510    -251.411    -484.678
  H     -108.707    -249.371    -484.078
  H     -111.056    -250.592    -485.674
  H     -102.845    -247.906    -486.261
  H     -111.754    -248.662    -484.336
  H     -103.664    -246.441    -486.712
  H     -110.360    -247.723    -484.926
  P     -109.142    -250.890    -481.904
  C     -110.734    -249.214    -480.696
  O     -109.411    -249.492    -481.153
  O     -107.622    -250.766    -482.374
  O     -109.384    -252.114    -481.074
  H     -107.040    -251.336    -481.833
  H     -110.753    -248.255    -480.221
  H     -111.035    -249.965    -479.996
  H     -111.406    -249.213    -481.529

 6  7  8  9  10  11  12  13  14  15  16  26  30  31  32  33  35 0
 6-311+G(2d,p)
 ****
 37  38 0
 6-311+G(2d,p)
 ****
 1  2  3  4  5  17  18  19  20  21  22  23  24  25 0
 3-21G
 ****
 27  28  29  34  36  39  40  41  42  43  44  45  46 0
 3-21G
 ****


