%nproc=1
%NoSave
%Mem=1900MB
#P OB98/GEN NMR

erre ene a

0 1
  C       66.397      61.872    -100.313
  O       65.730      60.626    -100.392
  P       64.402      60.484    -101.275
  C       62.912      62.006     -99.780
  O       63.159      60.714    -100.290
  C       61.848      61.972     -98.674
  O       61.619      63.333     -98.236
  C       60.488      61.440     -99.111
  O       59.747      61.071     -97.945
  C       59.863      62.664     -99.743
  O       58.444      62.567     -99.824
  C       60.398      63.812     -98.849
  N       60.666      65.031     -99.635
  C       59.746      66.068     -99.519
  O       58.789      66.032     -98.746
  N       59.913      67.115    -100.383
  C       60.864      67.188    -101.358
  O       60.814      67.964    -102.305
  C       61.940      66.188    -101.271
  C       61.781      65.153    -100.443
  O       64.353      58.917    -101.591
  O       64.383      61.302    -102.519
  H       58.116      62.424     -98.906
  H       64.739      58.737    -102.468
  H       59.164      67.797    -100.397
  H       62.791      66.297    -101.928
  H       62.533      64.371    -100.396
  H       59.685      64.070     -98.058
  H       60.245      62.775    -100.765
  H       60.536      60.600     -99.811
  H       62.230      61.400     -97.820
  H       62.598      62.663    -100.596
  H       63.833      62.437     -99.373
  P       59.718      59.522     -97.534
  C       58.574      58.644     -99.658
  O       58.445      58.884     -98.271
  O       59.828      59.230     -96.075
  O       60.948      58.907     -98.359
  H       61.211      58.053     -97.968
  H       57.938      57.797     -99.930
  H       59.608      58.414     -99.931
  H       58.242      59.528    -100.209
  H       67.257      61.777     -99.683
  H       65.735      62.606     -99.904
  H       66.704      62.175    -101.292

 3  4  5  6  7  8  9  10  11  12  13  23  28  29  30  31  32 0
 6-311+G(2d,p)
 ****
 33  34 0
 6-311+G(2d,p)
 ****
 1  2  14  15  16  17  18  19  20  21  22  24  25  26  27 0
 3-21G
 ****
 35  36  37  38  39  40  41  42  43  44  45 0
 3-21G
 ****


