%nproc=1
%NoSave
%Mem=1900MB
#P OB98/GEN NMR

erre ene a

0 1
  C       55.834     -70.639     183.065
  O       54.896     -69.947     183.900
  P       55.300     -69.369     185.340
  C       54.606     -67.317     186.735
  O       54.187     -68.310     185.802
  C       54.216     -65.908     186.278
  O       54.952     -65.532     185.098
  C       52.741     -65.743     185.925
  O       51.958     -65.612     187.097
  C       52.784     -64.503     185.036
  O       52.837     -63.312     185.841
  C       54.105     -64.699     184.282
  N       53.435     -63.701     179.312
  C       53.616     -62.893     180.378
  N       53.783     -63.234     181.675
  C       53.775     -64.571     181.815
  C       53.596     -65.521     180.821
  C       53.418     -65.039     179.513
  N       53.218     -65.864     178.430
  N       53.623     -66.794     181.351
  C       53.832     -66.616     182.641
  N       53.932     -65.292     182.970
  O       56.702     -68.858     185.425
  O       55.084     -70.596     186.346
  H       53.541     -63.437     186.502
  H       55.687     -70.506     187.109
  H       53.629     -61.827     180.164
  H       53.921     -67.410     183.370
  H       54.637     -63.750     184.146
  H       51.910     -64.419     184.385
  H       52.399     -66.601     185.335
  H       54.498     -65.208     187.074
  H       55.695     -67.379     186.840
  H       53.064     -65.440     177.529
  H       53.157     -66.861     178.579
  H       54.145     -67.535     187.705
  P       50.898     -66.748     187.487
  C       50.047     -67.331     189.835
  O       50.222     -66.309     188.873
  O       51.410     -68.150     187.445
  O       49.710     -66.534     186.435
  H       49.271     -67.388     186.265
  H       49.157     -67.916     189.587
  H       49.906     -66.869     190.816
  H       50.920     -67.989     189.874
  H       55.352     -70.935     182.156
  H       56.194     -71.507     183.577
  H       56.655     -69.992     182.839

 3  4  5  6  7  8  9  10  11  12  22  25  29  30  31  32 0
 6-311+G(2d,p)
 ****
 33  36  37 0
 6-311+G(2d,p)
 ****
 1  2  13  14  15  16  17  18  19  20  21  23  24  26 0
 3-21G
 ****
 27  28  34  35  38  39  40  41  42  43  44  45  46  47  48 0
 3-21G
 ****


