%nproc=1
%NoSave
%Mem=1900MB
#P OB98/GEN NMR

erre ene a

0 1
  C      961.470      32.897    -220.689
  O      961.942      32.590    -219.393
  H      962.199      32.541    -221.421
  H      961.363      33.978    -220.805
  H      960.512      32.406    -220.883
  P      960.980      32.854    -218.140
  C      961.147      30.402    -217.364
  O      960.285      31.459    -217.777
  C      961.214      30.356    -215.836
  O      959.891      30.114    -215.294
  C      962.087      29.228    -215.294
  O      963.463      29.533    -215.425
  C      961.581      29.140    -213.868
  O      962.194      30.143    -213.037
  C      960.070      29.426    -214.037
  N      959.272      28.199    -213.989
  C      958.230      28.174    -213.076
  O      957.956      29.130    -212.335
  N      957.538      27.002    -212.991
  C      957.874      25.837    -213.614
  O      957.376      24.748    -213.318
  C      958.944      25.929    -214.612
  C      959.598      27.089    -214.746
  O      960.047      34.013    -218.277
  O      962.003      33.073    -216.921
  H      962.081      34.026    -216.732
  H      963.155      29.954    -213.058
  H      956.796      26.964    -212.292
  H      959.192      25.041    -215.183
  H      960.413      27.174    -215.446
  H      959.716      30.105    -213.250
  H      961.791      28.164    -213.422
  H      961.849      28.295    -215.819
  H      961.561      31.334    -215.474
  H      962.152      30.593    -217.762
  H      960.771      29.461    -217.766
  P      964.212      29.280    -216.823
  C      964.887      31.741    -217.137
  O      964.166      30.642    -217.670
  O      963.779      28.061    -217.566
  O      965.764      29.180    -216.413
  H      966.136      28.361    -216.811
  H      964.781      32.585    -217.786
  H      965.922      31.482    -217.054
  H      964.502      31.985    -216.169

 6  7  8  9  10  11  12  13  14  15  16  27  31  32  33  34  35 0
 6-311+G(2d,p)
 ****
 36  37 0
 6-311+G(2d,p)
 ****
 1  2  3  4  5  17  18  19  20  21  22  23  24  25 0
 3-21G
 ****
 26  28  29  30  38  39  40  41  42  43  44  45 0
 3-21G
 ****


