%nproc=1
%NoSave
%Mem=1900MB
#P OB98/GEN NMR

erre ene a

0 1
  C       53.154     358.368     415.698
  O       52.316     359.413     415.247
  P       52.928     360.854     414.912
  C       53.223     359.898     412.543
  O       53.773     360.739     413.553
  C       53.201     360.623     411.199
  O       52.355     361.793     411.258
  C       54.558     361.137     410.752
  O       55.410     360.093     410.318
  C       54.153     362.129     409.667
  O       53.874     361.451     408.432
  C       52.853     362.720     410.260
  N       53.053     364.048     410.818
  C       52.053     364.989     410.538
  O       51.121     364.703     409.793
  N       52.151     366.236     411.109
  C       53.210     366.553     411.790
  N       53.220     367.777     412.382
  C       54.359     365.641     411.974
  C       54.202     364.409     411.484
  O       53.648     361.519     416.042
  O       51.657     361.722     414.462
  H       51.658     362.563     414.963
  H       54.721     361.092     408.112
  H       55.243     365.976     412.493
  H       54.986     363.661     411.589
  H       52.077     362.773     409.490
  H       54.932     362.867     409.463
  H       55.040     361.681     411.577
  H       52.788     359.936     410.447
  H       52.411     368.366     412.251
  H       52.200     359.628     412.831
  H       53.819     367.995     413.176
  H       53.816     358.979     412.477
  P       56.988     360.387     410.322
  C       56.886     360.164     412.898
  O       57.379     360.894     411.789
  O       57.116     361.707     409.414
  O       57.831     359.280     409.780
  H       57.937     361.665     408.892
  H       57.502     360.403     413.775
  H       56.927     359.088     412.721
  H       55.855     360.466     413.103
  H       52.568     357.489     415.868
  H       53.630     358.661     416.610
  H       53.898     358.163     414.957

 3  4  5  6  7  8  9  10  11  12  13  24  27  28  29  30  32 0
 6-311+G(2d,p)
 ****
 34  35 0
 6-311+G(2d,p)
 ****
 1  2  14  15  16  17  18  19  20  21  22  23  25  26 0
 3-21G
 ****
 31  33  36  37  38  39  40  41  42  43  44  45  46 0
 3-21G
 ****


