%nproc=1
%NoSave
%Mem=1900MB
#P OB98/GEN NMR

erre ene a

0 1
  C     -151.793     174.014    -898.250
  O     -151.483     172.712    -898.770
  P     -151.845     171.401    -897.930
  C     -149.437     170.826    -897.150
  O     -150.753     171.222    -896.760
  C     -148.448     171.186    -896.040
  O     -148.816     170.573    -894.760
  C     -147.027     170.669    -896.310
  O     -146.322     171.280    -897.370
  C     -146.387     170.706    -894.930
  O     -145.903     171.991    -894.610
  C     -147.587     170.327    -894.030
  N     -147.543     168.953    -893.550
  C     -146.725     168.716    -892.450
  O     -146.048     169.588    -891.910
  N     -146.678     167.418    -892.000
  C     -147.336     166.352    -892.560
  O     -147.255     165.209    -892.130
  C     -148.174     166.660    -893.740
  C     -148.234     167.916    -894.170
  O     -152.122     170.176    -898.730
  O     -153.150     171.862    -897.110
  H     -146.657     172.605    -894.570
  H     -153.775     171.113    -897.110
  H     -146.103     167.222    -891.190
  H     -148.692     165.832    -894.210
  H     -148.833     168.169    -895.040
  H     -147.630     170.993    -893.140
  H     -145.545     170.013    -894.870
  H     -147.112     169.593    -896.590
  H     -148.441     172.264    -895.890
  H     -149.163     171.324    -898.080
  H     -149.439     169.749    -897.350
  P     -146.290     170.704    -898.860
  C     -143.946     169.594    -898.750
  O     -145.341     169.414    -898.900
  O     -146.165     171.682    -900.000
  O     -147.761     170.033    -898.980
  H     -148.072     170.102    -899.900
  H     -143.452     168.636    -898.800
  H     -143.714     170.047    -897.790
  H     -143.556     170.255    -899.550
  H     -151.478     174.761    -898.948
  H     -151.283     174.157    -897.320
  H     -152.849     174.094    -898.094

 3  4  5  6  7  8  9  10  11  12  13  23  28  29  30  31  32 0
 6-311+G(2d,p)
 ****
 33  34 0
 6-311+G(2d,p)
 ****
 1  2  14  15  16  17  18  19  20  21  22  24  25  26  27 0
 3-21G
 ****
 35  36  37  38  39  40  41  42  43  44  45 0
 3-21G
 ****


