%nproc=1
%NoSave
%Mem=1900MB
#P OB98/GEN NMR

erre ene a

0 1
  C      337.724     580.245    -235.994
  O      337.587     578.943    -236.535
  P      336.090     578.448    -236.877
  C      335.852     577.197    -234.624
  O      335.799     577.103    -236.027
  C      336.631     576.021    -234.004
  O      335.775     574.851    -233.873
  C      337.848     575.597    -234.827
  O      338.853     575.148    -233.919
  C      337.337     574.408    -235.622
  O      338.397     573.591    -236.105
  C      336.430     573.764    -234.573
  N      335.730     569.171    -236.706
  C      336.843     569.792    -236.214
  N      336.945     571.026    -235.681
  C      335.730     571.618    -235.649
  C      334.529     571.122    -236.102
  C      334.548     569.838    -236.668
  N      333.440     569.227    -237.197
  N      333.519     572.057    -235.949
  C      334.116     573.094    -235.367
  N      335.438     572.867    -235.157
  O      336.209     577.930    -238.388
  O      335.060     579.515    -236.744
  H      338.008     572.863    -236.632
  H      335.760     578.545    -238.985
  H      337.760     569.219    -236.266
  H      333.625     574.036    -235.128
  H      336.996     573.168    -233.829
  H      336.747     574.764    -236.470
  H      338.252     576.374    -235.487
  H      336.954     576.304    -232.981
  H      334.824     577.192    -234.203
  H      333.562     568.309    -237.614
  H      332.570     569.728    -237.220
  H      336.281     578.145    -234.333
  P      340.149     576.089    -233.735
  C      341.939     574.191    -233.732
  O      341.249     575.203    -232.999
  O      339.680     577.144    -232.629
  O      340.587     576.731    -235.000
  H      340.190     577.976    -232.723
  H      342.992     574.206    -233.433
  H      341.870     574.358    -234.810
  H      341.504     573.227    -233.484
  H      338.759     580.449    -235.814
  H      337.182     580.308    -235.073
  H      337.334     580.962    -236.686

 3  4  5  6  7  8  9  10  11  12  22  25  29  30  31  32 0
 6-311+G(2d,p)
 ****
 33  36  37 0
 6-311+G(2d,p)
 ****
 1  2  13  14  15  16  17  18  19  20  21  23  24  26 0
 3-21G
 ****
 27  28  34  35  38  39  40  41  42  43  44  45  46  47  48 0
 3-21G
 ****


