%nproc=1
%NoSave
%Mem=1900MB
#P OB98/GEN NMR

erre ene a

0 1
  C      -69.760    -207.115      46.881
  O      -70.616    -208.239      46.966
  H      -69.182    -207.043      47.806
  H      -70.350    -206.201      46.759
  H      -69.070    -207.226      46.040
  P      -71.543    -208.527      45.688
  C      -73.682    -207.791      46.985
  O      -73.011    -208.815      46.264
  C      -75.143    -208.185      47.233
  O      -75.818    -208.299      45.943
  C      -75.315    -209.533      47.947
  O      -76.541    -209.485      48.695
  C      -75.475    -210.486      46.772
  O      -75.967    -211.736      47.197
  C      -76.366    -209.633      45.877
  N      -79.214    -212.016      42.358
  C      -79.479    -211.653      43.633
  N      -78.674    -211.011      44.503
  C      -77.492    -210.719      43.933
  C      -77.082    -211.019      42.646
  C      -78.005    -211.702      41.836
  N      -77.736    -212.081      40.542
  N      -75.792    -210.562      42.426
  C      -75.436    -210.000      43.562
  N      -76.425    -210.077      44.504
  O      -71.041    -209.960      45.186
  O      -71.482    -207.500      44.606
  H      -76.895    -211.655      47.511
  H      -70.381    -209.851      44.477
  H      -80.468    -211.916      44.001
  H      -74.476    -209.532      43.759
  H      -77.398    -209.589      46.253
  H      -74.508    -210.675      46.293
  H      -74.485    -209.781      48.618
  H      -75.644    -207.373      47.779
  H      -73.639    -206.866      46.401
  H      -73.179    -207.632      47.946
  H      -78.444    -212.588      40.034
  H      -76.832    -211.872      40.142
  P      -76.575    -208.674      50.086
  C      -75.978    -210.683      51.656
  O      -76.929    -209.705      51.267
  O      -77.945    -207.845      49.951
  O      -75.421    -207.763      50.333
  H      -77.875    -207.024      50.475
  H      -76.381    -211.277      52.450
  H      -75.085    -210.198      51.992
  H      -75.750    -211.311      50.820

 6  7  8  9  10  11  12  13  14  15  25  28  32  33  34  35 0
 6-311+G(2d,p)
 ****
 36  37  40 0
 6-311+G(2d,p)
 ****
 1  2  3  4  5  16  17  18  19  20  21  22  23  24 0
 3-21G
 ****
 26  27  29  30  31  38  39 41  42  43  44  45  46  47  48 0
 3-21G
 ****


