%nproc=1
%NoSave
%Mem=1900MB
#P OB98/GEN NMR

erre ene a

0 1
  C      386.379     133.688    -158.574
  O      386.994     132.822    -157.641
  H      385.825     133.085    -159.298
  H      387.123     134.285    -159.114
  H      385.670     134.349    -158.063
  P      388.087     133.445    -156.639
  C      390.030     133.067    -158.295
  O      389.256     134.025    -157.589
  C      391.499     133.128    -157.883
  O      392.299     132.222    -158.680
  C      392.147     134.497    -158.087
  O      391.642     135.522    -157.265
  C      393.627     134.156    -158.038
  O      394.125     134.062    -156.703
  C      393.641     132.746    -158.706
  N      394.166     132.798    -160.064
  C      395.549     132.586    -160.194
  O      396.290     132.396    -159.241
  N      396.040     132.621    -161.465
  C      395.324     132.907    -162.600
  O      395.828     132.951    -163.711
  C      393.886     133.158    -162.402
  C      393.390     133.087    -161.161
  O      388.585     132.529    -155.560
  O      387.376     134.771    -156.087
  H      395.051     133.781    -156.763
  H      387.845     135.112    -155.275
  H      397.030     132.461    -161.579
  H      393.288     133.388    -163.263
  H      392.323     133.263    -160.986
  H      394.268     132.065    -158.121
  H      394.236     134.895    -158.564
  H      391.941     134.820    -159.122
  H      391.572     132.811    -156.839
  H      389.941     133.283    -159.363
  H      389.630     132.068    -158.108
  P      391.797     137.085    -157.575
  C      392.942     137.546    -155.261
  O      393.010     137.662    -156.680
  O      390.538     137.874    -157.658
  O      392.452     137.052    -159.049
  H      392.121     137.829    -159.524
  H      393.820     137.976    -154.826
  H      392.879     136.513    -154.990
  H      392.076     138.062    -154.902

 6  7  8  9  10  11  12  13  14  15  16  26  31  32  33  34  35 0
 6-311+G(2d,p)
 ****
 36  37 0
 6-311+G(2d,p)
 ****
 1  2  3  4  5  17  18  19  20  21  22  23  24  25 0
 3-21G
 ****
 27  28  29  30  38  39  40  41  42  43  44  45 0
 3-21G
 ****


