%nproc=1
%NoSave
%Mem=1900MB
#P OB98/GEN NMR

erre ene a

0 1
  C      511.157    -382.390    -517.390
  O      512.402    -382.026    -517.986
  P      513.163    -383.083    -518.925
  C      512.223    -381.806    -520.971
  O      512.497    -383.078    -520.379
  C      512.514    -381.859    -522.474
  O      513.882    -382.262    -522.737
  C      511.667    -382.877    -523.222
  O      510.275    -382.577    -523.338
  C      512.439    -383.079    -524.502
  O      512.147    -382.061    -525.461
  C      513.902    -382.949    -524.003
  N      514.574    -384.250    -523.888
  C      515.283    -384.667    -525.010
  O      515.325    -384.035    -526.064
  N      515.916    -385.877    -524.892
  C      515.877    -386.707    -523.798
  O      516.453    -387.789    -523.762
  C      515.094    -386.223    -522.659
  C      514.486    -385.037    -522.747
  O      513.381    -384.430    -518.325
  O      514.572    -382.356    -519.188
  H      511.197    -381.865    -525.410
  H      515.271    -383.043    -519.142
  H      516.445    -386.201    -525.692
  H      515.047    -386.847    -521.783
  H      513.907    -384.661    -521.922
  H      514.485    -382.332    -524.695
  H      512.199    -384.040    -524.970
  H      511.714    -383.824    -522.659
  H      512.393    -380.848    -522.885
  H      512.831    -381.037    -520.488
  H      511.172    -381.548    -520.777
  P      509.123    -383.517    -522.717
  C      507.615    -381.452    -522.274
  O      508.212    -382.616    -521.754
  O      509.521    -384.866    -522.222
  O      508.159    -383.705    -524.003
  H      507.758    -384.591    -523.939
  H      507.041    -380.953    -521.479
  H      506.934    -381.692    -523.087
  H      508.388    -380.761    -522.618
  H      510.792    -381.575    -516.801
  H      511.298    -383.247    -516.765
  H      510.448    -382.621    -518.158

 3  4  5  6  7  8  9  10  11  12  13  23  28  29  30  31  32 0
 6-311+G(2d,p)
 ****
 33  34 0
 6-311+G(2d,p)
 ****
 1  2  14  15  16  17  18  19  20  21  22  24  25  26  27 0
 3-21G
 ****
 35  36  37  38  39  40  41  42  43  44  45 0
 3-21G
 ****


