%nproc=1
%NoSave
%Mem=1900MB
#P OB98/GEN NMR

erre ene a

0 1
  C        4.183    -405.061     281.255
  O        3.025    -405.127     282.068
  H        5.061    -405.231     281.884
  H        4.262    -404.070     280.800
  H        4.150    -405.833     280.475
  P        1.608    -405.084     281.303
  C        0.996    -402.571     281.756
  O        1.420    -403.563     280.833
  C        1.165    -401.173     281.152
  O        0.683    -400.197     282.110
  C        2.601    -400.827     280.811
  O        2.609    -400.043     279.610
  C        3.054    -399.958     281.983
  O        4.141    -399.099     281.628
  C        1.744    -399.251     282.354
  N        1.743    -398.800     283.754
  C        2.505    -397.661     284.042
  O        3.152    -397.103     283.157
  N        2.550    -397.209     285.336
  C        1.953    -397.872     286.276
  N        2.051    -397.392     287.547
  C        1.182    -399.112     286.020
  C        1.115    -399.507     284.751
  O        0.580    -405.243     282.520
  O        1.461    -406.114     280.231
  H        4.886    -399.667     281.332
  H        0.829    -404.730     283.311
  H        0.718    -399.649     286.841
  H        0.566    -400.401     284.473
  H        1.580    -398.382     281.712
  H        3.395    -400.602     282.801
  H        3.252    -401.689     280.682
  H        0.509    -401.092     280.274
  H        2.604    -396.551     287.679
  H        1.576    -402.638     282.681
  H        1.669    -397.854     288.352
  H       -0.059    -402.760     281.993
  P        2.078    -400.708     278.241
  C        4.196    -402.122     277.827
  O        2.790    -402.131     278.041
  O        2.093    -399.815     277.043
  O        0.571    -401.127     278.609
  H        0.009    -400.953     277.834
  H        4.545    -403.127     277.709
  H        4.682    -401.672     278.667
  H        4.419    -401.561     276.943

 6  7  8  9  10  11  12  13  14  15  16  26  30  31  32  33  35 0
 6-311+G(2d,p)
 ****
 37  38 0
 6-311+G(2d,p)
 ****
 1  2  3  4  5  17  18  19  20  21  22  23  24  25 0
 3-21G
 ****
 27  28  29  34  36  39  40  41  42  43  44  45  46 0
 3-21G
 ****


