%nproc=1
%NoSave
%Mem=1900MB
#P OB98/GEN NMR

erre ene a

0 1
  C     -495.048    -455.236     513.501
  O     -495.275    -454.551     512.276
  P     -494.260    -454.833     511.061
  C     -495.855    -454.177     509.118
  O     -494.686    -453.851     509.868
  C     -496.336    -452.952     508.336
  O     -496.999    -452.008     509.214
  C     -495.215    -452.148     507.671
  O     -494.808    -452.741     506.432
  C     -495.908    -450.819     507.428
  O     -496.730    -450.910     506.252
  C     -496.789    -450.676     508.691
  N     -495.766    -445.908     510.064
  C     -496.595    -446.380     509.073
  N     -497.190    -445.453     508.278
  N     -496.821    -447.653     508.840
  C     -496.150    -448.474     509.705
  C     -495.303    -448.115     510.732
  C     -495.052    -446.713     510.940
  O     -494.295    -446.229     511.786
  N     -494.822    -449.219     511.392
  C     -495.376    -450.240     510.750
  N     -496.146    -449.823     509.696
  O     -494.703    -456.280     510.531
  O     -492.803    -454.790     511.438
  H     -496.130    -450.839     505.477
  H     -493.982    -456.670     509.978
  H     -495.620    -444.919     510.179
  H     -495.230    -451.289     511.016
  H     -497.761    -450.254     508.454
  H     -495.202    -450.010     507.269
  H     -497.016    -444.459     508.352
  H     -494.366    -451.999     508.346
  H     -497.755    -445.774     507.500
  H     -497.072    -453.287     507.585
  H     -496.645    -454.509     509.797
  H     -495.624    -454.998     508.430
  P     -493.284    -453.272     506.367
  C     -493.878    -455.149     504.671
  O     -493.163    -453.979     504.908
  O     -493.281    -454.499     507.381
  O     -492.256    -452.240     506.695
  H     -492.380    -454.650     507.743
  H     -493.894    -455.344     503.585
  H     -494.919    -455.083     505.027
  H     -493.390    -456.002     505.164
  H     -495.795    -454.952     514.212
  H     -494.080    -454.980     513.879
  H     -495.097    -456.292     513.334

 3  4  5  6  7  8  9  10  11  12  23  26  30  31 0
 6-311+G(2d,p)
 ****
 33  35  36  37  38 0
 6-311+G(2d,p)
 ****
 1  2  13  14  15  16  17  18  19  20  21  22  24  25 0
 3-21G
 ****
 27  28  29  32  34  39  40  41  42  43  44  45  46  47  48  49 0
 3-21G
 ****


