%nproc=1
%NoSave
%Mem=1900MB
#P OB98/GEN NMR

erre ene a

0 1
  C       37.784     -59.322     376.973
  O       38.850     -58.372     377.039
  P       38.448     -56.820     376.952
  C       38.377     -56.306     379.496
  O       39.019     -56.065     378.251
  C       39.384     -56.381     380.649
  O       40.105     -57.640     380.628
  C       40.414     -55.259     380.635
  O       40.733     -54.942     381.997
  C       41.629     -55.919     379.995
  O       42.829     -55.215     380.315
  C       41.519     -57.338     380.585
  N       42.269     -58.335     379.819
  C       43.655     -58.337     379.967
  O       44.209     -57.477     380.662
  N       44.392     -59.282     379.289
  C       43.798     -60.113     378.499
  N       44.580     -61.029     377.852
  C       42.340     -60.108     378.266
  C       41.648     -59.204     378.955
  O       36.860     -56.839     377.191
  O       38.794     -56.182     375.645
  H       43.575     -55.852     380.261
  H       36.417     -56.315     376.499
  H       41.889     -60.809     377.579
  H       40.569     -59.126     378.855
  H       41.892     -57.358     381.615
  H       41.518     -55.939     378.907
  H       40.081     -54.355     380.115
  H       38.817     -56.352     381.595
  H       45.577     -61.005     378.041
  H       37.809     -57.237     379.449
  H       44.223     -61.718     377.216
  H       37.637     -55.510     379.671
  P       40.665     -53.409     382.459
  C       38.185     -52.868     382.854
  O       39.393     -53.334     383.437
  O       40.097     -52.701     381.133
  O       41.924     -52.754     382.935
  H       40.077     -51.738     381.265
  H       37.378     -52.983     383.588
  H       37.939     -53.453     381.962
  H       38.273     -51.816     382.598
  H       38.184     -60.312     377.042
  H       37.264     -59.211     376.044
  H       37.106     -59.154     377.784

 3  4  5  6  7  8  9  10  11  12  13  21  23  27  28  29  30  32 0
 6-311+G(2d,p)
 ****
 34  35 0
 6-311+G(2d,p)
 ****
 1  2  14  15  16  17  18  19  20  22  24  25  26 0
 3-21G
 ****
 31  33  36  37  38  39  40  41  42  43  44  45  46 0
 3-21G
 ****


