%nproc=1
%NoSave
%Mem=1900MB
#P OB98/GEN NMR

erre ene a

0 1
  C      987.364    -596.972    -157.844
  O      986.134    -596.538    -157.286
  P      985.786    -596.802    -155.761
  C      984.448    -594.538    -155.643
  O      984.512    -595.923    -155.359
  C      983.318    -593.910    -154.821
  O      983.403    -594.332    -153.447
  C      983.385    -592.391    -154.841
  O      982.539    -591.869    -155.871
  C      982.927    -592.011    -153.449
  O      981.497    -592.031    -153.360
  C      983.551    -593.164    -152.605
  N      984.959    -593.046    -152.203
  C      985.367    -591.971    -151.419
  O      984.603    -591.107    -150.989
  N      986.709    -591.915    -151.138
  C      987.651    -592.835    -151.533
  O      988.860    -592.653    -151.482
  C      987.113    -594.057    -152.119
  C      985.826    -594.113    -152.449
  O      986.986    -596.081    -154.975
  O      985.648    -598.241    -155.368
  H      981.250    -591.751    -152.471
  H      987.663    -596.731    -154.706
  H      987.035    -591.070    -150.680
  H      987.807    -594.884    -152.324
  H      985.417    -595.000    -152.925
  H      982.964    -593.321    -151.695
  H      983.242    -590.992    -153.191
  H      984.424    -592.053    -154.989
  H      982.359    -594.250    -155.225
  H      984.291    -594.380    -156.700
  H      985.413    -594.067    -155.387
  P      983.014    -590.597    -156.711
  C      980.898    -591.268    -158.005
  O      981.765    -590.209    -157.647
  O      984.327    -590.753    -157.436
  O      983.087    -589.428    -155.630
  H      984.003    -589.307    -155.307
  H      980.011    -590.849    -158.467
  H      980.606    -591.844    -157.117
  H      981.394    -591.920    -158.721
  H      987.403    -596.698    -158.878
  H      987.441    -598.035    -157.753
  H      988.175    -596.510    -157.322

 3  4  5  6  7  8  9  10  11  12  13  23  28  29  30  31  32 0
 6-311+G(2d,p)
 ****
 33  34 0
 6-311+G(2d,p)
 ****
 1  2  14  15  16  17  18  19  20  21  22  24  25  26  27 0
 3-21G
 ****
 35  36  37  38  39  40  41  42  43  44  45 0
 3-21G
 ****


