%nproc=1
%NoSave
%Mem=1900MB
#P OB98/GEN NMR

erre ene a

0 1
  C      -94.674    -226.891    -257.602
  O      -93.307    -226.715    -257.295
  H      -95.264    -226.728    -256.697
  H      -94.846    -227.913    -257.954
  H      -94.995    -226.175    -258.368
  P      -92.285    -226.709    -258.531
  C      -92.040    -229.287    -258.309
  O      -92.324    -228.187    -259.162
  C      -92.976    -230.451    -258.622
  O      -94.303    -230.180    -258.112
  C      -93.144    -230.736    -260.112
  O      -92.078    -231.534    -260.618
  C      -94.452    -231.513    -260.102
  O      -94.214    -232.865    -259.657
  C      -95.264    -230.744    -259.049
  N      -99.877    -228.636    -259.109
  C      -99.417    -229.748    -258.434
  N     -100.320    -230.402    -257.664
  N      -98.187    -230.192    -258.501
  C      -97.399    -229.447    -259.315
  C      -97.734    -228.322    -260.035
  C      -99.095    -227.842    -259.946
  O      -99.546    -226.849    -260.510
  N      -96.661    -227.836    -260.738
  C      -95.685    -228.674    -260.455
  N      -96.080    -229.673    -259.599
  O      -90.846    -226.649    -257.822
  O      -92.456    -225.588    -259.499
  H      -95.087    -233.301    -259.603
  H      -90.248    -226.106    -258.370
  H     -100.833    -228.347    -259.032
  H      -94.676    -228.600    -260.838
  H      -95.935    -231.395    -258.481
  H      -94.910    -231.578    -261.087
  H     -101.292    -230.145    -257.611
  H      -93.272    -229.813    -260.688
  H      -99.998    -231.199    -257.132
  H      -92.599    -231.340    -258.096
  H      -92.179    -228.978    -257.267
  H      -90.995    -229.590    -258.454
  P      -91.192    -230.919    -261.807
  C      -92.104    -232.669    -263.493
  O      -91.967    -231.293    -263.165
  O      -89.908    -231.878    -261.836
  O      -90.817    -229.485    -261.638
  H      -89.151    -231.415    -262.245
  H      -92.637    -232.764    -264.416
  H      -92.644    -233.169    -262.716
  H      -91.134    -233.110    -263.594

 6  7  8  9  10  11  12  13  14  15  26  29  33  34 0
 6-311+G(2d,p)
 ****
 36  38  39  40  41 0
 6-311+G(2d,p)
 ****
 1  2  3  4  5  16  17  18  19  20  21  22  23  24  25 0
 3-21G
 ****
 27  28  30  31  32  35  37  42  43  44  45  46  47 0
 3-21G
 ****
 48  49 0
 3-21G
 ****


