%nproc=1
%NoSave
%Mem=1900MB
#P OB98/GEN NMR

erre ene a

0 1
  C      -51.880      74.339       2.046
  O      -52.519      75.296       2.866
  H      -50.846      74.652       1.882
  H      -52.379      74.261       1.077
  H      -51.874      73.363       2.541
  P      -54.092      75.159       3.131
  C      -55.022      76.189       0.962
  O      -54.784      74.994       1.692
  C      -56.085      75.965      -0.114
  O      -57.351      75.680       0.540
  C      -56.287      77.171      -1.039
  O      -56.538      76.688      -2.360
  C      -57.527      77.824      -0.465
  O      -58.192      78.614      -1.432
  C      -58.323      76.622       0.050
  N      -59.272      77.020       1.089
  C      -60.579      77.289       0.671
  O      -60.888      77.171      -0.516
  N      -61.489      77.747       1.587
  C      -61.115      77.973       2.807
  N      -62.057      78.464       3.656
  C      -59.740      77.732       3.287
  C      -58.879      77.258       2.386
  O      -54.706      76.203       4.002
  O      -54.240      73.699       3.774
  H      -59.046      78.927      -1.064
  H      -54.176      73.754       4.746
  H      -59.477      77.942       4.312
  H      -57.846      77.062       2.645
  H      -58.877      76.141      -0.766
  H      -57.246      78.479       0.370
  H      -55.431      77.852      -1.046
  H      -55.817      75.070      -0.688
  H      -62.979      78.638       3.275
  H      -54.079      76.488       0.490
  H      -61.875      78.719       4.614
  H      -55.340      76.983       1.644
  P      -55.483      76.947      -3.540
  C      -55.822      79.203      -4.698
  O      -55.173      78.521      -3.630
  O      -55.832      76.306      -4.843
  O      -54.113      76.337      -2.967
  H      -53.570      76.012      -3.709
  H      -55.555      80.239      -4.674
  H      -56.882      79.106      -4.591
  H      -55.517      78.777      -5.631

 6  7  8  9  10  11  12  13  14  15  16  26  30  31  32  33  35 0
 6-311+G(2d,p)
 ****
 37  38 0
 6-311+G(2d,p)
 ****
 1  2  3  4  5  17  18  19  20  21  22  23  24  25 0
 3-21G
 ****
 27  28  29  34  36  39  40  41  42  43  44  45  46 0
 3-21G
 ****


