%nproc=1
%NoSave
%Mem=1900MB
#P OB98/GEN NMR

erre ene a

0 1
  C      -49.491     129.463    -400.068
  O      -49.784     129.644    -401.441
  P      -50.431     131.047    -401.877
  C      -52.211     130.097    -403.522
  O      -51.016     130.851    -403.356
  C      -52.476     129.850    -405.005
  O      -52.645     131.105    -405.693
  C      -51.349     129.134    -405.739
  O      -51.337     127.749    -405.434
  C      -51.702     129.465    -407.184
  O      -52.764     128.612    -407.642
  C      -52.204     130.915    -407.066
  N      -49.866     133.488    -410.822
  C      -50.836     132.546    -410.842
  N      -51.391     131.893    -409.802
  C      -50.853     132.302    -408.643
  C      -49.844     133.234    -408.468
  C      -49.345     133.848    -409.627
  N      -48.353     134.805    -409.602
  N      -49.535     133.377    -407.133
  C      -50.350     132.553    -406.509
  N      -51.176     131.890    -407.377
  O      -49.155     131.982    -402.106
  O      -51.385     131.636    -400.885
  H      -52.401     127.706    -407.707
  H      -49.348     132.906    -401.854
  H      -51.218     132.283    -411.826
  H      -50.384     132.404    -405.439
  H      -53.062     131.118    -407.719
  H      -50.860     129.341    -407.873
  H      -50.380     129.578    -405.479
  H      -53.410     129.280    -405.094
  H      -53.056     130.651    -403.100
  H      -47.952     135.081    -410.486
  H      -47.871     134.966    -408.728
  H      -52.112     129.152    -402.980
  P      -50.115     127.200    -404.552
  C      -49.645     124.866    -405.515
  O      -50.343     125.608    -404.531
  O      -50.556     127.635    -403.079
  O      -48.768     127.658    -404.992
  H      -51.477     127.391    -402.886
  H      -49.844     123.802    -405.355
  H      -48.568     125.041    -405.431
  H      -49.993     125.144    -406.511
  H      -49.067     128.492    -399.919
  H      -50.391     129.551    -399.497
  H      -48.793     130.209    -399.751

 3  4  5  6  7  8  9  10  11  12  22  25  29  30  31  32 0
 6-311+G(2d,p)
 ****
 33  36  37 0
 6-311+G(2d,p)
 ****
 1  2  13  14  15  16  17  18  19  20  21  23  24  26 0
 3-21G
 ****
 27  28  34  35  38  39  40  41  42  43  44  45  46  47  48 0
 3-21G
 ****


