%nproc=1
%NoSave
%Mem=1900MB
#P OB98/GEN NMR

erre ene a

0 1
  C      502.428     533.825    -166.810
  O      501.176     533.179    -166.916
  H      503.059     533.261    -166.119
  H      502.295     534.837    -166.422
  H      502.918     533.863    -167.789
  P      500.093     533.852    -167.886
  C      498.944     531.722    -168.824
  O      499.837     532.801    -169.077
  C      499.203     530.575    -169.803
  O      498.785     530.986    -171.137
  C      500.678     530.156    -169.889
  O      500.745     528.735    -170.040
  C      501.145     530.810    -171.173
  O      502.283     530.157    -171.725
  C      499.879     530.703    -172.025
  N      502.243     531.740    -176.342
  C      502.428     530.705    -175.447
  N      503.396     529.805    -175.736
  N      501.728     530.564    -174.355
  C      500.780     531.520    -174.197
  C      500.504     532.597    -175.000
  C      501.305     532.755    -176.205
  O      501.205     533.660    -177.023
  N      499.485     533.358    -174.485
  C      499.150     532.741    -173.364
  N      499.904     531.617    -173.146
  O      500.913     535.024    -168.604
  O      498.852     534.358    -167.220
  H      503.059     530.368    -171.160
  H      500.322     535.772    -168.835
  H      502.817     531.806    -177.166
  H      498.378     533.063    -172.675
  H      499.738     529.694    -172.436
  H      501.406     531.861    -170.995
  H      503.949     529.831    -176.581
  H      501.269     530.463    -169.023
  H      503.538     529.030    -175.103
  H      498.568     529.731    -169.525
  H      497.915     532.082    -168.947
  H      499.081     531.373    -167.795
  P      501.504     527.898    -168.891
  C      499.406     526.498    -168.265
  O      500.415     527.395    -167.818
  O      502.307     529.038    -168.100
  O      502.424     526.850    -169.417
  H      503.259     528.956    -168.294
  H      498.759     526.253    -167.448
  H      499.862     525.605    -168.639
  H      498.837     526.961    -169.044

 6  7  8  9  10  11  12  13  14  15  26  29  33  34 0
 6-311+G(2d,p)
 ****
 36  38  39  40  41 0
 6-311+G(2d,p)
 ****
 1  2  3  4  5  16  17  18  19  20  21  22  23  24  25 0
 3-21G
 ****
 27  28  30  31  32  35  37  42  43  44  45  46  47 0
 3-21G
 ****
 48  49 0
 3-21G
 ****


