%nproc=1
%NoSave
%Mem=1900MB
#P OB98/GEN NMR

erre ene a

0 1
  C      -46.828     -27.322      93.435
  O      -45.539     -27.945      93.481
  P      -45.347     -29.459      93.976
  C      -43.104     -29.750      92.760
  O      -43.787     -29.849      94.006
  C      -42.765     -28.304      92.372
  O      -41.911     -27.683      93.369
  C      -42.050     -28.148      91.023
  O      -42.465     -26.884      90.500
  C      -40.590     -28.099      91.440
  O      -39.736     -27.541      90.453
  C      -40.693     -27.273      92.718
  N      -35.896     -25.802      93.735
  C      -36.835     -25.292      92.909
  N      -38.100     -25.716      92.720
  C      -38.383     -26.755      93.523
  C      -37.531     -27.376      94.422
  C      -36.224     -26.865      94.507
  N      -35.249     -27.409      95.311
  N      -38.165     -28.433      95.048
  C      -39.374     -28.452      94.524
  N      -39.557     -27.456      93.601
  O      -46.206     -30.451      93.258
  O      -45.745     -29.420      95.528
  H      -38.817     -27.771      90.679
  H      -46.331     -30.175      95.727
  H      -36.526     -24.435      92.317
  H      -40.147     -29.173      94.760
  H      -40.778     -26.203      92.495
  H      -40.239     -29.119      91.643
  H      -42.266     -28.954      90.318
  H      -43.704     -27.736      92.369
  H      -43.735     -30.195      91.983
  H      -34.318     -27.032      95.232
  H      -35.436     -28.274      95.794
  H      -42.182     -30.339      92.819
  P      -43.531     -26.774      89.310
  C      -44.563     -24.556      90.056
  O      -43.792     -25.214      89.068
  O      -44.766     -27.593      89.495
  O      -42.722     -27.221      88.001
  H      -43.352     -27.473      87.299
  H      -45.620     -24.811      89.927
  H      -44.440     -23.477      89.943
  H      -44.240     -24.845      91.061
  H      -46.727     -26.319      93.077
  H      -47.253     -27.309      94.417
  H      -47.467     -27.873      92.777

 3  4  5  6  7  8  9  10  11  12  22  25  29  30  31  32 0
 6-311+G(2d,p)
 ****
 33  36  37 0
 6-311+G(2d,p)
 ****
 1  2  13  14  15  16  17  18  19  20  21  23  24  26 0
 3-21G
 ****
 27  28  34  35  38  39  40  41  42  43  44  45  46  47  48 0
 3-21G
 ****


