%nproc=1
%NoSave
%Mem=1900MB
#P OB98/GEN NMR

erre ene a

0 1
  C     1389.640    -344.198     855.776
  O     1388.632    -344.606     856.734
  P     1388.917    -344.174     858.254
  C     1389.920    -346.538     858.689
  O     1389.027    -345.524     859.125
  C     1389.973    -347.711     859.692
  O     1390.446    -347.263     860.972
  C     1388.616    -348.347     859.944
  O     1388.231    -349.239     858.893
  C     1388.885    -349.086     861.254
  O     1389.515    -350.365     860.958
  C     1389.871    -348.165     861.976
  N     1389.570    -347.287     866.957
  C     1390.337    -348.202     866.270
  N     1391.160    -348.988     866.993
  N     1390.294    -348.344     864.955
  C     1389.456    -347.488     864.340
  C     1388.627    -346.513     864.924
  C     1388.677    -346.393     866.373
  O     1387.996    -345.622     867.028
  N     1387.938    -345.803     863.986
  C     1388.329    -346.331     862.843
  N     1389.258    -347.354     863.000
  O     1387.494    -343.578     858.746
  O     1390.032    -343.196     858.433
  H     1388.919    -350.827     860.331
  H     1387.626    -342.924     859.438
  H     1389.625    -347.225     867.951
  H     1388.005    -346.004     861.851
  H     1390.705    -348.724     862.429
  H     1387.961    -349.297     861.811
  H     1391.286    -348.874     867.967
  H     1387.835    -347.550     860.121
  H     1391.758    -349.663     866.509
  H     1390.665    -348.463     859.302
  H     1390.962    -346.111     858.592
  H     1389.627    -346.881     857.684
  P     1387.440    -348.612     857.666
  C     1385.198    -349.623     858.445
  O     1386.157    -349.571     857.436
  O     1388.382    -348.957     856.433
  O     1387.154    -347.163     857.761
  H     1388.286    -348.292     855.714
  H     1384.957    -348.645     858.836
  H     1385.544    -350.282     859.261
  H     1384.265    -350.069     858.021
  H     1389.359    -344.532     854.799
  H     1390.582    -344.630     856.043
  H     1389.723    -343.131     855.778

 3  4  5  6  7  8  9  10  11  12  23  26  30  31  33  0
 6-311+G(2d,p)
 ****
 35  36  37  38 0
 6-311+G(2d,p)
 ****
 1  2  13  14  15  16  17  18  19  20  21  22  24  25  27  28  29 0
 3-21G
 ****
 32  34  39  40  41  42  43  44  45  46  47  48  49 0
 3-21G
 ****


