%nproc=1
%NoSave
%Mem=1900MB
#P OB98/GEN NMR

erre ene a

0 1
  C      -88.540    -101.240    -106.104
  O      -87.674    -100.297    -105.504
  H      -88.621    -102.109    -105.445
  H      -88.144    -101.570    -107.069
  H      -89.538    -100.810    -106.237
  P      -87.325     -98.960    -106.311
  C      -85.350    -100.299    -107.313
  O      -86.432     -99.408    -107.564
  C      -84.025     -99.672    -107.746
  O      -84.070     -99.318    -109.141
  C      -83.675     -98.388    -107.002
  O      -83.226     -98.674    -105.693
  C      -82.629     -97.801    -107.939
  O      -81.359     -98.450    -107.763
  C      -83.234     -98.151    -109.322
  N      -83.995     -97.057    -109.918
  C      -83.509     -96.559    -111.133
  O      -82.488     -97.032    -111.633
  N      -84.187     -95.528    -111.736
  C      -85.273     -95.063    -111.202
  N      -85.901     -94.044    -111.851
  C      -85.837     -95.583    -109.941
  C      -85.148     -96.559    -109.354
  O      -86.743     -97.835    -105.509
  O      -88.715     -98.544    -106.987
  H      -81.517     -99.401    -107.929
  H      -89.192     -97.902    -106.425
  H      -86.752     -95.172    -109.536
  H      -85.495     -96.997    -108.421
  H      -82.441     -98.435    -110.027
  H      -82.471     -96.737    -107.769
  H      -84.538     -97.711    -106.984
  H      -83.238    -100.427    -107.621
  H      -85.486     -93.737    -112.724
  H      -85.542    -101.210    -107.894
  H      -86.826     -93.720    -111.618
  H      -85.310    -100.570    -106.252
  P      -83.455     -97.646    -104.484
  C      -80.946     -97.208    -104.115
  O      -82.193     -96.654    -104.510
  O      -83.731     -98.274    -103.159
  O      -84.643     -96.708    -105.005
  H      -85.511     -97.174    -104.926
  H      -80.187     -96.456    -104.173
  H      -80.694     -98.020    -104.765
  H      -81.017     -97.566    -103.109

 6  7  8  9  10  11  12  13  14  15  16  26  30  31  32  33  35 0
 6-311+G(2d,p)
 ****
 37  38 0
 6-311+G(2d,p)
 ****
 1  2  3  4  5  17  18  19  20  21  22  23  24  25 0
 3-21G
 ****
 27  28  29  34  36  39  40  41  42  43  44  45  46 0
 3-21G
 ****


