%nproc=1
%NoSave
%Mem=1900MB
#P OB98/GEN NMR

erre ene a

0 1
  C     -179.920      83.240     -63.521
  O     -179.350      84.439     -63.038
  H     -180.953      83.436     -63.816
  H     -179.919      82.481     -62.736
  H     -179.371      82.872     -64.393
  P     -177.777      84.480     -62.727
  C     -177.225      85.866     -64.830
  O     -177.030      84.641     -64.137
  C     -175.875      86.512     -65.135
  O     -175.046      85.604     -65.891
  C     -175.971      87.782     -65.974
  O     -176.412      88.876     -65.191
  C     -174.540      87.892     -66.483
  O     -173.683      88.461     -65.482
  C     -174.188      86.406     -66.733
  N     -174.316      86.011     -68.136
  C     -173.336      86.481     -69.004
  O     -172.420      87.223     -68.645
  N     -173.453      86.083     -70.311
  C     -174.476      85.348     -70.832
  O     -174.562      85.061     -72.026
  C     -175.503      84.907     -69.877
  C     -175.377      85.254     -68.594
  O     -177.257      83.378     -61.864
  O     -177.567      85.913     -62.044
  H     -173.970      89.386     -65.362
  H     -177.511      85.810     -61.075
  H     -172.758      86.424     -70.957
  H     -176.334      84.326     -70.258
  H     -176.128      84.942     -67.875
  H     -173.158      86.202     -66.415
  H     -174.456      88.525     -67.367
  H     -176.637      87.622     -66.831
  H     -175.372      86.715     -64.180
  H     -177.818      86.538     -64.199
  H     -177.777      85.666     -65.755
  P     -177.317      90.028     -65.831
  C     -179.544      89.395     -64.730
  O     -178.815      89.456     -65.951
  O     -176.781      90.637     -67.084
  O     -177.438      91.117     -64.664
  H     -176.879      91.893     -64.876
  H     -180.522      89.003     -64.918
  H     -179.627      90.378     -64.315
  H     -179.031      88.758     -64.040

 6  7  8  9  10  11  12  13  14  15  16  26  31  32  33  34  35 0
 6-311+G(2d,p)
 ****
 36  37 0
 6-311+G(2d,p)
 ****
 1  2  3  4  5  17  18  19  20  21  22  23  24  25 0
 3-21G
 ****
 27  28  29  30  38  39  40  41  42  43  44  45 0
 3-21G
 ****


