%nproc=1
%NoSave
%Mem=1900MB
#P OB98/GEN NMR

erre ene a

0 1
  C      197.321    -249.378     -77.187
  O      197.827    -248.391     -78.054
  P      197.144    -246.968     -78.274
  C      195.909    -247.323     -80.552
  O      196.989    -246.716     -79.850
  C      196.244    -247.479     -82.047
  O      196.378    -246.154     -82.626
  C      197.595    -248.194     -82.253
  O      197.587    -249.143     -83.310
  C      198.579    -247.039     -82.357
  O      199.804    -247.391     -82.986
  C      197.738    -245.981     -83.069
  N      201.530    -242.589     -83.110
  C      201.484    -243.848     -83.676
  N      202.655    -244.329     -84.151
  N      200.394    -244.573     -83.732
  C      199.335    -244.011     -83.111
  C      199.260    -242.768     -82.517
  C      200.458    -241.962     -82.495
  O      200.574    -240.892     -81.900
  N      198.037    -242.553     -81.932
  C      197.383    -243.681     -82.138
  N      198.143    -244.605     -82.825
  O      197.643    -245.843     -77.425
  O      195.617    -247.267     -77.830
  H      199.583    -247.767     -83.862
  H      195.272    -246.452     -77.416
  H      202.417    -242.109     -83.024
  H      196.379    -243.892     -81.792
  H      197.765    -246.109     -84.150
  H      198.825    -246.723     -81.335
  H      203.533    -243.854     -83.991
  H      197.842    -248.796     -81.373
  H      202.700    -245.328     -84.343
  H      195.416    -247.982     -82.553
  H      195.048    -246.662     -80.426
  H      195.657    -248.293     -80.113
  P      198.185    -250.625     -83.328
  C      199.822    -250.508     -85.301
  O      198.581    -250.998     -84.837
  O      196.927    -251.577     -83.045
  O      199.256    -250.876     -82.326
  H      197.202    -252.311     -82.461
  H      199.848    -250.591     -86.393
  H      200.635    -251.113     -84.886
  H      199.963    -249.458     -85.016
  H      197.957    -250.238     -77.216
  H      196.334    -249.653     -77.497
  H      197.288    -248.993     -76.189

 3  4  5  6  7  8  9  10  11  12  23  26  30  31 0
 6-311+G(2d,p)
 ****
 33  35  36  37  38 0
 6-311+G(2d,p)
 ****
 1  2  13  14  15  16  17  18  19  20  21  22  24  25 0
 3-21G
 ****
 27  28  29  32  34  39  40  41  42  43  44  45  46  47  48  49 0
 3-21G
 ****


