%nproc=1
%NoSave
%Mem=1900MB
#P OB98/GEN NMR

erre ene a

0 1
  C     -196.724      61.408     -20.019
  O     -196.433      62.264     -21.131
  P     -195.792      63.702     -20.810
  C     -194.897      65.606     -22.373
  O     -195.745      64.476     -22.213
  C     -194.856      66.022     -23.840
  O     -194.194      65.013     -24.642
  C     -196.228      66.204     -24.478
  O     -196.842      67.410     -24.045
  C     -195.870      66.163     -25.957
  O     -195.363      67.439     -26.387
  C     -194.734      65.113     -25.980
  N     -195.168      63.816     -26.480
  C     -195.119      63.651     -27.862
  O     -194.760      64.540     -28.634
  N     -195.519      62.426     -28.334
  C     -195.983      61.391     -27.575
  O     -196.317      60.313     -28.053
  C     -196.058      61.642     -26.129
  C     -195.653      62.823     -25.653
  O     -194.272      63.301     -20.524
  O     -196.484      64.412     -19.696
  H     -193.959      62.565     -21.073
  H     -196.047      68.097     -26.158
  H     -195.476      62.284     -29.332
  H     -196.446      60.847     -25.499
  H     -195.707      63.028     -24.587
  H     -193.909      65.462     -26.617
  H     -196.728      65.921     -26.590
  H     -196.870      65.351     -24.228
  H     -194.277      66.954     -23.915
  H     -193.885      65.360     -22.040
  H     -195.267      66.417     -21.741
  P     -197.551      67.383     -22.602
  C     -199.096      69.112     -21.392
  O     -198.632      68.565     -22.606
  O     -196.372      67.933     -21.668
  O     -198.067      66.037     -22.215
  H     -195.914      68.702     -22.047
  H     -199.530      70.095     -21.590
  H     -198.284      69.229     -20.670
  H     -199.868      68.465     -20.970
  H     -197.144      60.490     -20.375
  H     -197.424      61.892     -19.370
  H     -195.822      61.203     -19.481

 3  4  5  6  7  8  9  10  11  12  13  24  28  29  30  31  32 0
 6-311+G(2d,p)
 ****
 33  34 0
 6-311+G(2d,p)
 ****
 1  2  14  15  16  17  18  19  20  21  22  23  25  26  27 0
 3-21G
 ****
 35  36  37  38  39  40  41  42  43  44  45 0
 3-21G
 ****


