%nproc=1
%NoSave
%Mem=1900MB
#P OB98/GEN NMR

erre ene a

0 1
  C      440.939     517.782     101.362
  O      441.328     517.999     102.704
  P      442.707     517.428     103.265
  C      444.365     519.431     102.864
  O      443.903     518.148     102.490
  C      445.606     519.273     103.757
  O      446.519     518.319     103.175
  C      446.341     520.593     103.934
  O      445.925     521.250     105.121
  C      447.799     520.159     103.965
  O      448.158     519.685     105.272
  C      447.796     518.986     102.953
  N      447.895     519.298     101.511
  C      449.108     519.732     100.984
  O      450.133     519.846     101.645
  N      449.093     520.062      99.650
  C      448.018     519.961      98.820
  O      447.953     520.476      97.708
  C      446.856     519.242      99.366
  C      446.839     518.980     100.665
  O      442.746     515.936     102.685
  O      442.872     517.464     104.757
  H      449.089     519.413     105.234
  H      442.456     515.300     103.367
  H      449.935     520.508      99.293
  H      446.033     519.013      98.696
  H      445.978     518.486     101.109
  H      448.590     518.266     103.180
  H      448.466     520.995     103.744
  H      446.191     521.236     103.055
  H      445.292     518.883     104.731
  H      443.576     519.966     103.401
  H      444.615     520.023     101.974
  P      446.235     522.809     105.310
  C      443.813     523.504     104.850
  O      445.146     523.571     104.399
  O      447.650     523.211     105.106
  O      445.753     523.091     106.815
  H      446.531     523.068     107.420
  H      443.217     524.202     104.249
  H      443.740     523.783     105.896
  H      443.427     522.492     104.694
  H      439.989     518.243     101.187
  H      440.865     516.731     101.178
  H      441.669     518.208     100.706

 3  4  5  6  7  8  9  10  11  12  13  23  28  29  30  31  32 0
 6-311+G(2d,p)
 ****
 33  34 0
 6-311+G(2d,p)
 ****
 1  2  14  15  16  17  18  19  20  21  22  24  25  26  27 0
 3-21G
 ****
 35  36  37  38  39  40  41  42  43  44  45 0
 3-21G
 ****


