%nproc=1
%NoSave
%Mem=1900MB
#P OB98/GEN NMR

erre ene a

0 1
  C      -27.143     114.179    -311.078
  O      -28.061     114.831    -311.939
  P      -27.612     115.050    -313.464
  C      -29.524     113.634    -314.514
  O      -28.128     113.760    -314.262
  C      -29.836     113.986    -315.967
  O      -29.144     113.085    -316.851
  C      -31.306     113.868    -316.330
  O      -32.029     114.983    -315.848
  C      -31.234     113.786    -317.849
  O      -31.208     115.098    -318.437
  C      -29.895     113.050    -318.086
  N      -30.082     111.688    -318.556
  C      -30.896     111.540    -319.685
  O      -31.419     112.528    -320.203
  N      -31.128     110.276    -320.170
  C      -30.595     109.254    -319.576
  N      -30.855     108.026    -320.103
  C      -29.748     109.366    -318.373
  C      -29.539     110.599    -317.917
  O      -26.028     114.849    -313.410
  O      -27.999     116.370    -314.045
  H      -32.054     115.519    -318.181
  H      -25.590     115.337    -314.133
  H      -29.330     108.480    -317.916
  H      -28.930     110.772    -317.038
  H      -29.292     113.586    -318.828
  H      -32.100     113.267    -318.271
  H      -31.728     112.938    -315.930
  H      -29.470     115.003    -316.160
  H      -31.445     107.982    -320.924
  H      -30.073     114.320    -313.861
  H      -30.470     107.171    -319.728
  H      -29.835     112.610    -314.287
  P      -33.577     114.771    -315.497
  C      -33.043     115.216    -313.028
  O      -33.591     114.307    -313.963
  O      -33.913     113.404    -316.263
  O      -34.516     115.868    -315.867
  H      -34.868     113.216    -316.206
  H      -33.255     114.853    -312.020
  H      -33.490     116.206    -313.149
  H      -31.958     115.278    -313.160
  H      -27.567     114.100    -310.099
  H      -26.236     114.745    -311.029
  H      -26.933     113.200    -311.456

 3  4  5  6  7  8  9  10  11  12  13  21  23  27  28  29  30  32 0
 6-311+G(2d,p)
 ****
 34  35 0
 6-311+G(2d,p)
 ****
 1  2  14  15  16  17  18  19  20  22  24  25  26 0
 3-21G
 ****
 31  33  36  37  38  39  40  41  42  43  44  45  46 0
 3-21G
 ****


