%nproc=1
%NoSave
%Mem=1900MB
#P OB98/GEN NMR

erre ene a

0 1
  C      545.467     561.596    -231.014
  O      546.120     562.754    -230.523
  H      544.396     561.700    -230.830
  H      545.830     560.710    -230.490
  H      545.635     561.495    -232.086
  P      547.713     562.809    -230.713
  C      547.513     565.402    -230.784
  O      548.172     564.270    -230.229
  C      547.901     566.655    -230.006
  O      549.323     566.895    -230.143
  C      547.232     567.928    -230.507
  O      545.893     568.039    -230.052
  C      548.156     568.991    -229.935
  O      547.842     569.291    -228.573
  C      549.532     568.321    -230.031
  N      553.697     570.923    -231.439
  C      553.241     570.536    -230.223
  N      552.124     569.827    -229.934
  C      551.466     569.502    -231.064
  C      551.811     569.828    -232.367
  C      552.986     570.574    -232.539
  N      553.438     570.994    -233.769
  N      550.866     569.351    -233.254
  C      549.976     568.739    -232.500
  N      550.297     568.802    -231.173
  O      547.883     562.861    -232.307
  O      548.466     561.673    -230.111
  H      548.418     570.041    -228.317
  H      548.105     561.972    -232.639
  H      553.850     570.827    -229.374
  H      549.072     568.251    -232.866
  H      550.143     568.495    -229.135
  H      548.073     569.915    -230.512
  H      547.265     567.970    -231.602
  H      547.684     566.492    -228.941
  H      546.425     565.259    -230.716
  H      547.796     565.498    -231.837
  H      554.254     571.587    -233.809
  H      552.866     570.838    -234.579
  P      544.894     568.966    -230.896
  C      542.773     567.967    -229.755
  O      543.547     569.122    -230.038
  O      544.449     568.026    -232.126
  O      545.481     570.253    -231.367
  H      544.343     568.568    -232.930
  H      541.915     568.245    -229.179
  H      543.364     567.268    -229.201
  H      542.456     567.517    -230.672

 6  7  8  9  10  11  12  13  14  15  25  28  32  33  34  35 0
 6-311+G(2d,p)
 ****
 36  37  40 0
 6-311+G(2d,p)
 ****
 1  2  3  4  5  16  17  18  19  20  21  22  23  24 0
 3-21G
 ****
 26  27  29  30  31  38  39 41  42  43  44  45  46  47  48 0
 3-21G
 ****


