%nproc=1
%NoSave
%Mem=1900MB
#P OB98/GEN NMR

erre ene a

0 1
  C       50.773    -162.274     -23.490
  O       51.943    -161.498     -23.331
  H       51.000    -163.309     -23.220
  H       50.439    -162.246     -24.530
  H       49.982    -161.904     -22.833
  P       51.828    -159.948     -23.739
  C       51.897    -158.626     -25.969
  O       52.082    -159.879     -25.324
  C       52.152    -158.755     -27.468
  O       51.181    -159.631     -28.080
  C       52.099    -157.436     -28.231
  O       53.337    -156.750     -28.147
  C       51.790    -157.922     -29.640
  O       52.984    -158.401     -30.297
  C       50.816    -159.079     -29.374
  N       46.809    -158.125     -32.301
  C       48.119    -158.404     -32.642
  N       48.414    -158.399     -33.961
  N       49.061    -158.652     -31.772
  C       48.638    -158.562     -30.486
  C       47.371    -158.293     -30.020
  C       46.327    -158.079     -30.997
  O       45.133    -157.908     -30.758
  N       47.334    -158.313     -28.648
  C       48.582    -158.559     -28.291
  N       49.413    -158.711     -29.372
  O       53.160    -159.300     -23.126
  O       50.611    -159.245     -23.245
  H       52.736    -158.845     -31.125
  H       52.946    -158.409     -22.785
  H       46.120    -157.974     -33.013
  H       48.930    -158.640     -27.268
  H       50.926    -159.881     -30.111
  H       51.397    -157.120     -30.267
  H       47.824    -157.941     -34.641
  H       51.273    -156.809     -27.874
  H       49.389    -158.531     -34.207
  H       53.136    -159.232     -27.593
  H       52.594    -157.902     -25.541
  H       50.871    -158.283     -25.798
  P       53.351    -155.178     -28.448
  C       53.953    -153.702     -30.502
  O       53.534    -154.975     -30.031
  O       54.762    -154.711     -27.846
  O       52.230    -154.413     -27.829
  H       54.620    -154.235     -27.007
  H       54.029    -153.724     -31.569
  H       54.907    -153.463     -30.082
  H       53.239    -152.961     -30.210

 6  7  8  9  10  11  12  13  14  15  26  29  33  34 0
 6-311+G(2d,p)
 ****
 36  38  39  40  41 0
 6-311+G(2d,p)
 ****
 1  2  3  4  5  16  17  18  19  20  21  22  23  24  25 0
 3-21G
 ****
 27  28  30  31  32  35  37  42  43  44  45  46  47 0
 3-21G
 ****
 48  49 0
 3-21G
 ****


