%nproc=1
%NoSave
%Mem=1900MB
#P OB98/GEN NMR

erre ene a

0 1
  C       -4.176     487.344     396.386
  O       -5.241     486.959     397.269
  P       -5.219     485.460     397.841
  C       -7.580     484.746     397.005
  O       -6.182     484.549     396.929
  C       -8.324     483.455     396.638
  O       -7.915     482.975     395.347
  C       -8.025     482.306     397.587
  O       -8.764     482.452     398.801
  C       -8.427     481.090     396.757
  O       -9.822     480.753     396.958
  C       -8.171     481.556     395.303
  N       -7.086     480.841     394.668
  C       -7.454     479.939     393.674
  O       -8.649     479.762     393.393
  N       -6.478     479.228     393.033
  C       -5.231     479.384     393.385
  N       -4.286     478.655     392.717
  C       -4.800     480.311     394.447
  C       -5.768     481.009     395.046
  O       -6.032     485.593     399.216
  O       -3.842     484.915     398.058
  H       -9.953     480.774     397.931
  H       -5.679     484.957     399.876
  H       -3.748     480.415     394.705
  H       -5.545     481.714     395.840
  H       -9.081     481.422     394.706
  H       -7.848     480.211     397.044
  H       -6.951     482.270     397.815
  H       -9.410     483.662     396.625
  H       -4.625     478.011     391.993
  H       -7.892     485.561     396.339
  H       -3.290     478.703     392.911
  H       -7.843     485.068     398.021
  P       -7.968     482.901     400.114
  C       -7.651     480.424     400.679
  O       -7.013     481.672     400.469
  O       -9.113     482.773     401.242
  O       -7.342     484.257     400.105
  H       -8.780     483.124     402.092
  H       -6.888     479.635     400.702
  H       -8.340     480.198     399.874
  H       -8.175     480.426     401.643
  H       -4.314     488.361     396.083
  H       -4.181     486.711     395.524
  H       -3.239     487.247     396.894

 3  4  5  6  7  8  9  10  11  12  13  21  23  27  28  29  30  32 0
 6-311+G(2d,p)
 ****
 34  35 0
 6-311+G(2d,p)
 ****
 1  2  14  15  16  17  18  19  20  22  24  25  26 0
 3-21G
 ****
 31  33  36  37  38  39  40  41  42  43  44  45  46 0
 3-21G
 ****


