%nproc=1
%NoSave
%Mem=1900MB
#P OB98/GEN NMR

erre ene a

0 1
  C      -43.421     343.676    -264.682
  O      -43.445     343.518    -266.087
  H      -42.394     343.546    -264.332
  H      -44.054     342.923    -264.207
  H      -43.763     344.679    -264.408
  P      -44.878     343.649    -266.797
  C      -44.666     346.227    -267.003
  O      -45.401     345.133    -266.475
  C      -45.601     347.209    -267.700
  O      -46.527     347.790    -266.756
  C      -44.894     348.370    -268.388
  O      -44.422     347.994    -269.672
  C      -46.011     349.400    -268.454
  O      -46.902     349.147    -269.559
  C      -46.728     349.184    -267.114
  N      -46.586     353.943    -265.431
  C      -47.214     353.406    -266.537
  N      -47.857     354.279    -267.343
  N      -47.204     352.134    -266.833
  C      -46.495     351.390    -265.954
  C      -45.844     351.798    -264.812
  C      -45.890     353.205    -264.484
  O      -45.410     353.735    -263.484
  N      -45.255     350.742    -264.173
  C      -45.514     349.700    -264.943
  N      -46.249     350.046    -266.044
  O      -45.828     342.723    -265.899
  O      -44.920     343.249    -268.234
  H      -46.509     349.493    -270.376
  H      -46.529     342.347    -266.460
  H      -46.645     354.928    -265.249
  H      -45.191     348.688    -264.746
  H      -47.808     349.346    -267.193
  H      -45.622     350.410    -268.595
  H      -47.618     355.260    -267.358
  H      -44.080     348.756    -267.765
  H      -48.299     353.896    -268.170
  H      -46.194     346.637    -268.428
  H      -43.936     345.848    -267.730
  H      -44.130     346.728    -266.191
  P      -43.596     349.089    -270.512
  C      -41.398     347.740    -270.158
  O      -42.073     348.987    -270.017
  O      -44.091     350.481    -269.895
  O      -43.802     349.025    -271.988
  H      -43.867     351.212    -270.500
  H      -40.399     347.831    -269.786
  H      -41.370     347.465    -271.192
  H      -41.918     346.988    -269.602

 6  7  8  9  10  11  12  13  14  15  26  29  33  34 0
 6-311+G(2d,p)
 ****
 36  38  39  40  41 0
 6-311+G(2d,p)
 ****
 1  2  3  4  5  16  17  18  19  20  21  22  23  24  25 0
 3-21G
 ****
 27  28  30  31  32  35  37  42  43  44  45  46  47 0
 3-21G
 ****
 48  49 0
 3-21G
 ****


