%nproc=1
%NoSave
%Mem=1900MB
#P OB98/GEN NMR

erre ene a

0 1
  C      -32.882     -38.458    -129.060
  O      -32.999     -39.870    -129.110
  P      -33.059     -40.745    -127.764
  C      -34.228     -42.642    -129.073
  O      -33.122     -42.267    -128.262
  C      -34.139     -44.126    -129.416
  O      -34.008     -44.895    -128.205
  C      -35.364     -44.683    -130.130
  O      -35.377     -44.301    -131.496
  C      -35.196     -46.175    -129.868
  O      -34.235     -46.738    -130.775
  C      -34.628     -46.183    -128.433
  N      -35.642     -46.465    -127.423
  C      -36.116     -47.779    -127.366
  O      -35.684     -48.643    -128.126
  N      -37.053     -48.098    -126.415
  C      -37.497     -47.184    -125.609
  N      -38.373     -47.573    -124.644
  C      -37.065     -45.776    -125.672
  C      -36.143     -45.492    -126.589
  O      -34.138     -40.355    -126.813
  O      -31.589     -40.642    -127.153
  H      -34.624     -46.679    -131.669
  H      -31.464     -39.866    -126.553
  H      -37.474     -45.047    -124.988
  H      -35.759     -44.484    -126.687
  H      -33.827     -46.926    -128.347
  H      -36.126     -46.744    -129.971
  H      -36.282     -44.326    -129.650
  H      -33.238     -44.285    -130.023
  H      -38.505     -48.571    -124.526
  H      -34.196     -42.057    -129.998
  H      -38.538     -47.007    -123.821
  H      -35.158     -42.414    -128.543
  P      -36.791     -43.912    -132.144
  C      -35.385     -42.407    -133.720
  O      -36.459     -43.322    -133.600
  O      -37.248     -42.639    -131.291
  O      -37.804     -45.007    -132.113
  H      -37.911     -42.898    -130.624
  H      -35.145     -42.292    -134.779
  H      -34.500     -42.778    -133.196
  H      -35.679     -41.434    -133.318
  H      -32.859     -38.067    -130.056
  H      -31.979     -38.193    -128.551
  H      -33.720     -38.049    -128.535

 3  4  5  6  7  8  9  10  11  12  13  23  27  28  29  30  32 0
 6-311+G(2d,p)
 ****
 34  35 0
 6-311+G(2d,p)
 ****
 1  2  14  15  16  17  18  19  20  21  22  24  25  26 0
 3-21G
 ****
 31  33  36  37  38  39  40  41  42  43  44  45  46 0
 3-21G
 ****


