%nproc=1
%NoSave
%Mem=1900MB
#P OB98/GEN NMR

erre ene a

0 1
  C      380.333    -448.452     373.755
  O      380.878    -449.755     373.761
  H      379.254    -448.521     373.919
  H      380.513    -447.967     372.790
  H      380.776    -447.858     374.558
  P      382.455    -449.876     373.499
  C      382.449    -451.393     375.580
  O      383.067    -450.290     374.927
  C      383.160    -451.690     376.908
  O      384.468    -452.236     376.615
  C      383.357    -450.449     377.783
  O      383.174    -450.808     379.153
  C      384.807    -450.073     377.549
  O      385.365    -449.344     378.640
  C      385.450    -451.441     377.307
  N      389.584    -453.963     375.699
  C      388.483    -454.368     376.375
  N      387.417    -453.628     376.747
  C      387.545    -452.361     376.316
  C      388.605    -451.805     375.626
  C      389.671    -452.669     375.319
  N      390.806    -452.265     374.661
  N      388.383    -450.455     375.396
  C      387.200    -450.211     375.932
  N      386.662    -451.326     376.512
  O      383.094    -448.697     372.847
  O      382.545    -451.246     372.675
  H      386.165    -448.878     378.325
  H      381.978    -451.934     373.067
  H      388.453    -455.418     376.652
  H      386.698    -449.248     375.936
  H      385.716    -451.949     378.242
  H      384.887    -449.445     376.649
  H      382.677    -449.637     377.518
  H      382.600    -452.471     377.440
  H      382.487    -452.282     374.940
  H      391.521    -452.954     374.465
  H      390.882    -451.304     374.349
  H      381.401    -451.140     375.763
  P      381.697    -450.703     379.774
  C      381.444    -453.164     380.519
  O      380.980    -452.137     379.645
  O      380.886    -449.536     379.330
  O      381.998    -450.616     381.347
  H      381.365    -450.005     381.763
  H      380.893    -454.063     380.337
  H      381.303    -452.858     381.535
  H      382.484    -453.341     380.341

 6  7  8  9  10  11  12  13  14  15  25  28  32  33  34  35 0
 6-311+G(2d,p)
 ****
 36  39  40 0
 6-311+G(2d,p)
 ****
 1  2  3  4  5  16  17  18  19  20  21  22  23  24 0
 3-21G
 ****
 26  27  29  30  31  37  38  41  42  43  44  45  46  47 0
 3-21G
 ****
 48 0
 3-21G
 ****


