%nproc=1
%NoSave
%Mem=1900MB
#P OB98/GEN NMR

erre ene a

0 1
  C     -898.520    -646.935     588.445
  O     -897.530    -647.932     588.224
  H     -899.400    -647.382     588.915
  H     -898.100    -646.191     589.130
  H     -898.790    -646.445     587.519
  P     -897.870    -649.039     587.111
  C     -895.520    -648.633     586.079
  O     -896.920    -648.699     585.857
  C     -894.770    -648.511     584.745
  O     -894.920    -649.751     584.019
  C     -895.290    -647.376     583.871
  O     -894.180    -646.747     583.200
  C     -896.170    -648.087     582.848
  O     -896.290    -647.360     581.640
  C     -895.440    -649.407     582.714
  N     -896.210    -652.719     578.896
  C     -895.180    -651.877     579.171
  N     -895.060    -651.038     580.209
  C     -896.090    -651.144     581.038
  C     -897.210    -651.973     580.914
  C     -897.230    -652.780     579.760
  N     -898.290    -653.614     579.469
  N     -898.090    -651.774     581.962
  C     -897.510    -650.872     582.731
  N     -896.300    -650.462     582.213
  O     -899.330    -648.593     586.613
  O     -897.860    -650.458     587.572
  H     -896.570    -646.448     581.828
  H     -900.000    -648.895     587.240
  H     -894.380    -651.879     578.438
  H     -897.920    -650.485     583.652
  H     -894.580    -649.353     582.004
  H     -897.170    -648.233     583.249
  H     -895.860    -646.618     584.435
  H     -893.700    -648.382     584.958
  H     -895.190    -649.543     586.591
  H     -898.260    -654.109     578.595
  H     -899.100    -653.623     580.056
  H     -895.280    -647.782     586.724
  P     -893.960    -645.201     583.520
  C     -891.620    -645.167     584.646
  O     -893.040    -645.055     584.831
  O     -895.400    -644.679     584.005
  O     -893.480    -644.407     582.324
  H     -895.640    -643.886     583.543
  H     -891.127    -645.052     585.589
  H     -891.287    -644.404     583.974
  H     -891.388    -646.128     584.237

 6  7  8  9  10  11  12  13  14  15  25  28  32  33  34  35 0
 6-311+G(2d,p)
 ****
 36  39  40 0
 6-311+G(2d,p)
 ****
 1  2  3  4  5  16  17  18  19  20  21  22  23  24 0
 3-21G
 ****
 26  27  29  30  31  37  38  41  42  43  44  45  46  47 0
 3-21G
 ****
 48 0
 3-21G
 ****


