%nproc=1
%NoSave
%Mem=1900MB
#P OB98/GEN NMR

erre ene a

0 1
  C      567.740    -206.908    -192.834
  O      569.062    -206.407    -192.763
  H      567.667    -207.590    -193.687
  H      567.039    -206.085    -192.985
  H      567.488    -207.453    -191.918
  P      569.420    -205.466    -191.514
  C      571.562    -206.772    -190.801
  O      571.015    -205.567    -191.318
  C      573.082    -206.637    -190.667
  O      573.652    -206.596    -192.011
  C      573.519    -205.362    -189.939
  O      574.674    -205.649    -189.145
  C      573.896    -204.422    -191.075
  O      574.804    -203.397    -190.690
  C      574.481    -205.410    -192.092
  N      574.487    -204.880    -193.451
  C      575.535    -205.248    -194.287
  O      576.428    -206.049    -193.982
  N      575.550    -204.658    -195.521
  C      574.653    -203.732    -195.988
  O      574.741    -203.216    -197.094
  C      573.565    -203.378    -195.061
  C      573.536    -203.959    -193.858
  O      568.843    -206.280    -190.259
  O      568.894    -204.070    -191.584
  H      567.921    -206.021    -190.083
  H      574.369    -202.862    -189.996
  H      576.316    -204.916    -196.133
  H      572.848    -202.645    -195.388
  H      572.757    -203.696    -193.138
  H      575.495    -205.695    -191.801
  H      572.996    -203.947    -191.478
  H      572.732    -204.941    -189.310
  H      573.472    -207.529    -190.178
  H      571.328    -207.595    -191.484
  H      571.113    -206.990    -189.820
  P      574.441    -206.064    -187.610
  C      576.072    -208.110    -187.776
  O      575.759    -206.866    -187.164
  O      573.320    -207.196    -187.764
  O      574.064    -204.907    -186.746
  H      573.433    -207.755    -188.556
  H      576.978    -208.496    -187.357
  H      576.199    -207.968    -188.829
  H      575.275    -208.803    -187.603

 6  7  8  9  10  11  12  13  14  15  16  27  31  32  33  34  35 0
 6-311+G(2d,p)
 ****
 36  37 0
 6-311+G(2d,p)
 ****
 1  2  3  4  5  17  18  19  20  21  22  23  24  25 0
 3-21G
 ****
 26  28  29  30  38  39  40  41  42  43  44  45 0
 3-21G
 ****


