%nproc=1
%NoSave
%Mem=1900MB
#P OB98/GEN NMR

erre ene a

0 1
  C      176.374    -246.864    -133.548
  O      175.170    -246.549    -132.874
  H      176.429    -247.949    -133.673
  H      177.242    -246.533    -132.973
  H      176.381    -246.396    -134.535
  P      174.981    -245.054    -132.324
  C      173.972    -246.011    -130.149
  O      173.777    -245.141    -131.260
  C      172.755    -246.012    -129.224
  O      172.589    -244.722    -128.597
  C      171.435    -246.274    -129.934
  O      171.296    -247.568    -130.468
  C      170.426    -245.780    -128.907
  O      170.147    -246.757    -127.905
  C      171.184    -244.580    -128.282
  N      170.660    -243.298    -128.731
  C      169.440    -242.912    -128.187
  O      168.806    -243.604    -127.385
  N      168.945    -241.712    -128.617
  C      169.517    -240.901    -129.554
  O      169.010    -239.841    -129.912
  C      170.787    -241.376    -130.126
  C      171.292    -242.536    -129.696
  O      174.793    -243.995    -133.370
  O      176.263    -244.824    -131.395
  H      169.530    -246.343    -127.269
  H      176.389    -243.862    -131.194
  H      168.068    -241.406    -128.220
  H      171.260    -240.763    -130.876
  H      172.230    -242.905    -130.098
  H      171.107    -244.614    -127.187
  H      169.471    -245.503    -129.362
  H      171.365    -245.585    -130.788
  H      172.933    -246.748    -128.430
  H      174.847    -245.654    -129.594
  H      174.173    -247.027    -130.511
  P      171.740    -247.972    -131.944
  C      169.416    -247.837    -133.136
  O      170.491    -248.653    -132.685
  O      173.083    -248.613    -132.093
  O      171.813    -246.527    -132.669
  H      172.537    -246.568    -133.324
  H      168.675    -248.450    -133.604
  H      169.783    -247.121    -133.841
  H      168.982    -247.326    -132.302

 6  7  8  9  10  11  12  13  14  15  16  26  31  32  33  34  35 0
 6-311+G(2d,p)
 ****
 36  37 0
 6-311+G(2d,p)
 ****
 1  2  3  4  5  17  18  19  20  21  22  23  24  25 0
 3-21G
 ****
 27  28  29  30  38  39  40  41  42  43  44  45 0
 3-21G
 ****


