%nproc=1
%NoSave
%Mem=1900MB
#P OB98/GEN NMR

erre ene a

0 1
  C      331.041     -89.081     137.669
  O      330.821     -89.218     136.279
  H      330.604     -88.135     138.001
  H      332.113     -89.060     137.875
  H      330.571     -89.905     138.213
  P      331.232     -90.617     135.616
  C      333.509     -91.782     135.006
  O      332.832     -90.603     135.448
  C      334.653     -91.404     134.064
  O      335.388     -90.266     134.565
  C      335.711     -92.487     133.918
  O      335.261     -93.594     133.174
  C      336.816     -91.688     133.242
  O      336.554     -91.534     131.842
  C      336.705     -90.330     133.970
  N      337.754     -90.144     134.967
  C      338.696     -89.140     134.680
  O      338.601     -88.467     133.655
  N      339.739     -88.944     135.571
  C      339.819     -89.664     136.639
  N      340.871     -89.430     137.473
  C      338.834     -90.712     136.988
  C      337.849     -90.898     136.116
  O      330.714     -90.461     134.109
  O      330.725     -91.836     136.316
  H      336.563     -92.434     131.453
  H      331.041     -89.649     133.667
  H      338.937     -91.278     137.910
  H      337.078     -91.651     136.288
  H      336.772     -89.493     133.250
  H      337.782     -92.179     133.327
  H      336.079     -92.790     134.903
  H      334.215     -91.131     133.091
  H      341.539     -88.717     137.186
  H      332.813     -92.475     134.517
  H      341.055     -89.954     138.318
  H      333.903     -92.288     135.896
  P      336.157     -94.918     133.063
  C      338.574     -95.324     132.258
  O      337.385     -94.546     132.100
  O      335.427     -96.150     132.672
  O      336.870     -95.008     134.497
  H      337.424     -94.239     134.728
  H      339.317     -94.985     131.566
  H      338.354     -96.354     132.069
  H      338.941     -95.215     133.257

 6  7  8  9  10  11  12  13  14  15  16  26  30  31  32  33  35 0
 6-311+G(2d,p)
 ****
 37  38 0
 6-311+G(2d,p)
 ****
 1  2  3  4  5  17  18  19  20  21  22  23  24  25 0
 3-21G
 ****
 27  28  29  34  36  39  40  41  42  43  44  45  46 0
 3-21G
 ****


