%nproc=1
%NoSave
%Mem=1900MB
#P OB98/GEN NMR

erre ene a

0 1
  C      627.110    1098.559     638.286
  O      625.776    1098.394     638.701
  P      625.294    1097.011     639.386
  C      624.089    1098.661     640.967
  O      624.004    1097.404     640.268
  C      622.678    1099.127     641.361
  O      621.967    1098.022     641.953
  C      622.605    1100.276     642.366
  O      622.756    1101.579     641.798
  C      621.181    1100.090     642.886
  O      620.252    1100.653     641.922
  C      621.040    1098.579     642.934
  N      619.558    1098.334     647.819
  C      619.017    1098.952     646.749
  N      619.469    1098.975     645.475
  C      620.622    1098.261     645.360
  C      621.273    1097.573     646.379
  C      620.710    1097.642     647.659
  N      621.259    1097.004     648.775
  N      622.397    1096.943     645.889
  C      622.422    1097.237     644.603
  N      621.348    1098.022     644.251
  O      626.373    1096.263     640.123
  O      624.648    1096.183     638.171
  H      620.435    1101.613     641.904
  H      624.586    1095.235     638.416
  H      618.077    1099.495     646.910
  H      623.190    1096.916     643.894
  H      620.034    1098.226     642.650
  H      621.020    1100.604     643.842
  H      623.323    1100.099     643.179
  H      622.164    1099.391     640.404
  H      624.555    1099.390     640.309
  H      620.688    1096.992     649.619
  H      622.001    1096.332     648.619
  H      624.718    1098.521     641.862
  P      623.825    1102.559     642.529
  C      624.343    1103.146     640.020
  O      624.354    1103.533     641.368
  O      624.887    1101.873     643.317
  O      622.858    1103.497     643.403
  H      622.262    1104.094     642.906
  H      624.602    1104.017     639.365
  H      623.381    1102.762     639.731
  H      625.114    1102.356     639.863
  H      627.233    1099.533     637.860
  H      627.350    1097.817     637.554
  H      627.761    1098.453     639.128

 3  4  5  6  7  8  9  10  11  12  22  25  29  30  31  32 0
 6-311+G(2d,p)
 ****
 33  36  37 0
 6-311+G(2d,p)
 ****
 1  2  13  14  15  16  17  18  19  20  21  23  24  26 0
 3-21G
 ****
 27  28  34  35  38  39  40  41  42  43  44  45  46  47  48 0
 3-21G
 ****


