%nproc=1
%NoSave
%Mem=1900MB
#P OB98/GEN NMR

erre ene a

0 1
  C     -236.628      -6.654    -140.728
  O     -236.371      -6.881    -139.351
  P     -236.539      -8.376    -138.796
  C     -238.910      -7.893    -137.881
  O     -237.582      -8.295    -137.577
  C     -239.592      -7.295    -136.658
  O     -240.883      -6.752    -137.053
  C     -239.842      -8.297    -135.519
  O     -239.508      -7.684    -134.268
  C     -241.348      -8.497    -135.548
  O     -241.856      -8.901    -134.281
  C     -241.803      -7.113    -136.004
  N     -246.650      -7.523    -134.647
  C     -245.522      -7.393    -133.861
  N     -245.710      -7.438    -132.523
  N     -244.317      -7.237    -134.340
  C     -244.280      -7.182    -135.696
  C     -245.329      -7.288    -136.580
  C     -246.649      -7.519    -136.036
  O     -247.676      -7.732    -136.681
  N     -244.899      -7.165    -137.877
  C     -243.596      -6.989    -137.780
  N     -243.166      -7.039    -136.477
  O     -235.135      -8.651    -138.079
  O     -236.830      -9.410    -139.830
  H     -241.499      -9.794    -134.100
  H     -234.724      -9.455    -138.456
  H     -247.552      -7.656    -134.224
  H     -242.926      -6.851    -138.620
  H     -241.693      -6.384    -135.189
  H     -241.595      -9.268    -136.287
  H     -246.616      -7.516    -132.087
  H     -239.297      -9.242    -135.625
  H     -244.899      -7.320    -131.932
  H     -238.988      -6.449    -136.301
  H     -239.481      -8.764    -138.221
  H     -238.879      -7.157    -138.692
  P     -238.779      -8.633    -133.192
  C     -240.299      -7.395    -131.478
  O     -239.028      -7.944    -131.768
  O     -237.225      -8.380    -133.472
  O     -239.157     -10.073    -133.302
  H     -236.695      -9.144    -133.176
  H     -241.043      -7.651    -132.236
  H     -240.210      -6.306    -131.424
  H     -240.636      -7.771    -130.509
  H     -236.477      -5.619    -140.953
  H     -237.639      -6.924    -140.951
  H     -235.962      -7.248    -141.318

 3  4  5  6  7  8  9  10  11  12  23  26  30  31  33  0
 6-311+G(2d,p)
 ****
 35  36  37  38 0
 6-311+G(2d,p)
 ****
 1  2  13  14  15  16  17  18  19  20  21  22  24  25  27  28  29 0
 3-21G
 ****
 32  34  39  40  41  42  43  44  45  46  47  48  49 0
 3-21G
 ****


