%nproc=1
%NoSave
%Mem=1900MB
#P OB98/GEN NMR

erre ene a

0 1
  C     -354.422    -373.451     387.109
  O     -353.035    -373.367     386.817
  P     -352.216    -374.732     386.648
  C     -349.984    -373.382     386.771
  O     -350.772    -374.345     386.081
  C     -348.542    -373.440     386.275
  O     -347.943    -374.713     386.602
  C     -348.395    -373.305     384.759
  O     -348.516    -371.946     384.353
  C     -347.023    -373.894     384.525
  O     -345.988    -372.911     384.756
  C     -346.962    -375.017     385.583
  N     -347.167    -376.338     385.013
  C     -346.011    -377.006     384.613
  O     -344.878    -376.511     384.699
  N     -346.202    -378.250     384.063
  C     -347.407    -378.853     383.831
  O     -347.513    -379.948     383.276
  C     -348.592    -378.083     384.250
  C     -348.422    -376.884     384.803
  O     -352.930    -375.460     385.410
  O     -352.202    -375.594     387.862
  H     -346.206    -372.459     385.595
  H     -352.937    -376.427     385.551
  H     -345.377    -378.762     383.783
  H     -349.564    -378.527     384.078
  H     -349.284    -376.295     385.112
  H     -345.977    -375.004     386.102
  H     -346.896    -374.241     383.497
  H     -349.157    -373.918     384.259
  H     -347.965    -372.650     386.784
  H     -350.023    -373.591     387.848
  H     -350.409    -372.390     386.606
  P     -349.496    -371.635     383.118
  C     -347.954    -369.882     381.948
  O     -349.138    -370.140     382.669
  O     -350.913    -371.525     383.866
  O     -349.448    -372.683     382.052
  H     -350.812    -371.157     384.771
  H     -347.700    -370.713     381.262
  H     -347.130    -369.736     382.656
  H     -348.079    -368.971     381.361
  H     -354.829    -372.465     387.192
  H     -354.561    -373.974     388.032
  H     -354.921    -373.978     386.322

 3  4  5  6  7  8  9  10  11  12  13  23  28  29  30  31  32 0
 6-311+G(2d,p)
 ****
 33  34 0
 6-311+G(2d,p)
 ****
 1  2  14  15  16  17  18  19  20  21  22  24  25  26 0
 3-21G
 ****
 27  35  36  37  38  39  40  41  42  43  44  45 0
 3-21G
 ****


