%nproc=1
%NoSave
%Mem=1900MB
#P OB98/GEN NMR

erre ene a

0 1
  C      138.412    -394.058    -612.128
  O      139.438    -394.300    -611.187
  H      138.466    -393.014    -612.449
  H      137.435    -394.233    -611.665
  H      138.529    -394.703    -613.003
  P      139.667    -395.824    -610.742
  C      137.556    -396.029    -609.243
  O      138.975    -395.986    -609.302
  C      137.097    -397.298    -608.529
  O      137.469    -398.465    -609.294
  C      137.694    -397.492    -607.138
  O      136.987    -396.752    -606.152
  C      137.497    -398.989    -606.956
  O      136.119    -399.259    -606.623
  C      137.822    -399.524    -608.355
  N      141.237    -403.256    -607.993
  C      139.888    -403.254    -607.694
  N      139.377    -404.410    -607.221
  N      139.107    -402.213    -607.840
  C      139.759    -401.123    -608.311
  C      141.088    -400.999    -608.644
  C      141.937    -402.158    -608.487
  O      143.133    -402.221    -608.760
  N      141.379    -399.739    -609.100
  C      140.232    -399.093    -609.020
  N      139.216    -399.888    -608.539
  O      141.234    -395.884    -610.405
  O      139.291    -396.849    -611.755
  H      136.035    -400.223    -606.524
  H      141.579    -396.756    -610.672
  H      141.795    -404.078    -607.849
  H      140.082    -398.059    -609.301
  H      137.223    -400.405    -608.615
  H      138.107    -399.396    -606.149
  H      139.930    -405.234    -607.038
  H      138.769    -397.260    -607.128
  H      138.382    -404.445    -607.026
  H      135.997    -397.280    -608.478
  H      137.152    -396.019    -610.262
  H      137.195    -395.144    -608.705
  P      137.788    -395.597    -605.371
  C      137.990    -397.415    -603.528
  O      137.785    -396.043    -603.829
  O      136.763    -394.367    -605.406
  O      139.113    -395.245    -605.957
  H      137.249    -393.525    -605.297
  H      137.961    -397.556    -602.468
  H      138.943    -397.724    -603.903
  H      137.220    -398.000    -603.986

 6  7  8  9  10  11  12  13  14  15  26  29  33  34 0
 6-311+G(2d,p)
 ****
 36  38  39  40  41 0
 6-311+G(2d,p)
 ****
 1  2  3  4  5  16  17  18  19  20  21  22  23  24  25 0
 3-21G
 ****
 27  28  30  31  32  35  37  42  43  44  45  46  47 0
 3-21G
 ****
 48  49 0
 3-21G
 ****


