%nproc=1
%NoSave
%Mem=1900MB
#P OB98/GEN NMR

erre ene a

0 1
  C     1450.231     142.483     715.441
  O     1449.584     141.321     714.958
  H     1450.491     142.325     716.494
  H     1449.543     143.329     715.373
  H     1451.140     142.700     714.883
  P     1449.497     141.088     713.370
  C     1451.196     139.153     713.279
  O     1450.907     140.487     712.880
  C     1451.185     138.184     712.094
  O     1452.229     138.559     711.157
  C     1451.463     136.742     712.514
  O     1450.311     136.012     712.917
  C     1452.057     136.146     711.230
  O     1451.039     135.623     710.359
  C     1452.749     137.348     710.588
  N     1457.393     138.020     708.493
  C     1456.143     137.970     707.868
  N     1456.155     138.088     706.520
  N     1455.023     137.817     708.520
  C     1455.185     137.618     709.853
  C     1456.364     137.626     710.562
  C     1457.588     137.873     709.859
  O     1458.712     137.946     710.360
  N     1456.136     137.339     711.916
  C     1454.856     137.087     711.967
  N     1454.212     137.322     710.773
  O     1449.544     142.584     712.780
  O     1448.277     140.366     712.886
  H     1451.461     135.365     709.522
  H     1449.030     142.620     711.942
  H     1458.203     138.163     707.960
  H     1454.303     136.786     712.855
  H     1452.575     137.398     709.503
  H     1452.722     135.314     711.471
  H     1456.986     138.121     705.973
  H     1452.220     136.699     713.307
  H     1455.286     137.862     706.028
  H     1450.227     138.274     711.570
  H     1450.435     138.864     714.005
  H     1452.171     139.121     713.797
  P     1450.431     134.686     713.774
  C     1450.716     135.786     716.152
  O     1451.255     135.014     715.103
  O     1451.450     133.793     712.927
  O     1449.150     133.960     714.062
  H     1450.968     133.126     712.392
  H     1451.439     135.877     716.936
  H     1449.837     135.308     716.531
  H     1450.463     136.759     715.785

 6  7  8  9  10  11  12  13  14  15  26  29  33  34 0
 6-311+G(2d,p)
 ****
 36  38  39  40  41 0
 6-311+G(2d,p)
 ****
 1  2  3  4  5  16  17  18  19  20  21  22  23  24  25 0
 3-21G
 ****
 27  28  30  31  32  35  37  42  43  44  45  46  47 0
 3-21G
 ****
 48  49 0
 3-21G
 ****


