%nproc=1
%NoSave
%Mem=1900MB
#P OB98/GEN NMR

erre ene a

0 1
  C        4.054     171.478     273.539
  O        3.112     172.134     274.363
  H        4.768     172.218     273.166
  H        3.553     171.016     272.684
  H        4.603     170.720     274.106
  P        2.004     171.258     275.122
  C        0.027     172.889     274.929
  O        0.979     172.293     275.797
  C        0.021     174.408     275.097
  O        1.202     174.953     274.459
  C       -1.205     175.091     274.480
  O       -1.597     176.172     275.329
  C       -0.679     175.637     273.168
  O       -1.418     176.770     272.717
  C        0.773     175.954     273.519
  N        3.488     178.874     270.414
  C        2.814     179.195     271.574
  N        2.841     180.488     271.958
  N        2.162     178.320     272.298
  C        2.231     177.059     271.806
  C        2.863     176.616     270.670
  C        3.570     177.595     269.871
  O        4.175     177.374     268.827
  N        2.681     175.265     270.491
  C        1.933     174.899     271.519
  N        1.625     175.953     272.339
  O        2.539     170.221     276.057
  O        1.146     170.607     273.942
  H       -1.229     177.505     273.340
  H        1.418     169.683     273.785
  H        3.966     179.585     269.888
  H        1.586     173.890     271.711
  H        0.883     176.942     273.987
  H       -0.734     174.860     272.394
  H        3.334     181.212     271.459
  H       -2.046     174.406     274.337
  H        2.371     180.743     272.819
  H        0.101     174.639     276.167
  H       -0.962     172.486     275.173
  H        0.268     172.627     273.891
  P       -2.906     176.006     276.239
  C       -3.744     178.440     276.148
  O       -3.196     177.407     276.961
  O       -2.924     174.809     277.133
  O       -4.084     175.928     275.149
  H       -4.808     175.378     275.506
  H       -3.892     179.319     276.740
  H       -4.682     178.118     275.747
  H       -3.070     178.659     275.346

 6  7  8  9  10  11  12  13  14  15  26  29  33  34 0
 6-311+G(2d,p)
 ****
 36  38  39  40  41 0
 6-311+G(2d,p)
 ****
 1  2  3  4  5  16  17  18  19  20  21  22  23  24  25 0
 3-21G
 ****
 27  28  30  31  32  35  37  42  43  44  45  46  47 0
 3-21G
 ****
 48  49 0
 3-21G
 ****


