%nproc=1
%NoSave
%Mem=1900MB
#P OB98/GEN NMR

erre ene a

0 1
  C      -61.426      -8.898     -11.090
  O      -62.782      -9.251     -11.292
  H      -61.309      -8.523     -10.070
  H      -61.142      -8.106     -11.787
  H      -60.769      -9.764     -11.221
  P      -63.183     -10.088     -12.599
  C      -64.378     -11.916     -11.218
  O      -64.510     -10.906     -12.211
  C      -65.726     -12.156     -10.529
  O      -65.978     -11.045      -9.613
  C      -66.914     -12.228     -11.514
  O      -67.876     -13.159     -11.005
  C      -67.464     -10.816     -11.425
  O      -68.795     -10.737     -11.873
  C      -67.274     -10.520      -9.940
  N      -67.384      -9.090      -9.662
  C      -68.577      -8.465     -10.018
  O      -69.516      -9.055     -10.558
  N      -68.638      -7.117      -9.807
  C      -67.601      -6.330      -9.386
  O      -67.691      -5.112      -9.290
  C      -66.346      -7.034      -9.076
  C      -66.298      -8.359      -9.217
  O      -62.096     -10.917     -13.205
  O      -63.751      -8.990     -13.613
  H      -68.821     -10.774     -12.845
  H      -63.716      -9.324     -14.532
  H      -69.500      -6.654     -10.050
  H      -65.503      -6.435      -8.749
  H      -65.381      -8.909      -9.014
  H      -68.016     -11.060      -9.338
  H      -66.859     -10.136     -12.040
  H      -66.618     -12.511     -12.524
  H      -65.664     -13.066      -9.923
  H      -63.641     -11.579     -10.480
  H      -64.022     -12.841     -11.680
  P      -67.979     -14.661     -11.561
  C      -67.916     -15.765      -9.238
  O      -68.643     -15.631     -10.457
  O      -66.700     -15.189     -12.141
  O      -69.103     -14.585     -12.707
  H      -68.788     -15.066     -13.497
  H      -68.441     -16.426      -8.580
  H      -67.817     -14.806      -8.775
  H      -66.945     -16.164      -9.444

 6  7  8  9  10  11  12  13  14  15  16  26  31  32  33  34  35 0
 6-311+G(2d,p)
 ****
 36  37 0
 6-311+G(2d,p)
 ****
 1  2  3  4  5  17  18  19  20  21  22  23  24  25 0
 3-21G
 ****
 27  28  29  30  38  39  40  41  42  43  44  45 0
 3-21G
 ****


