%nproc=1
%NoSave
%Mem=1900MB
#P OB98/GEN NMR

erre ene a

0 1
  C     -633.019    -496.369     464.925
  O     -631.724    -496.378     465.488
  H     -632.928    -496.280     463.838
  H     -633.589    -495.512     465.305
  H     -633.560    -497.295     465.158
  P     -631.557    -496.821     467.020
  C     -629.148    -497.548     466.400
  O     -629.977    -496.847     467.322
  C     -627.847    -496.774     466.138
  O     -628.160    -495.576     465.370
  C     -627.206    -496.304     467.458
  O     -625.788    -496.170     467.351
  C     -627.823    -494.916     467.650
  O     -627.027    -494.072     468.485
  C     -627.929    -494.433     466.208
  N     -629.149    -489.636     464.967
  C     -627.916    -490.166     465.241
  N     -626.853    -489.314     465.176
  N     -627.719    -491.427     465.580
  C     -628.878    -492.137     465.670
  C     -630.160    -491.714     465.437
  C     -630.356    -490.331     465.033
  O     -631.436    -489.803     464.797
  N     -631.063    -492.728     465.637
  C     -630.345    -493.762     466.001
  N     -628.994    -493.459     466.009
  O     -631.934    -498.379     467.006
  O     -632.383    -496.065     468.011
  H     -627.149    -494.368     469.409
  H     -632.192    -498.666     467.894
  H     -629.236    -488.674     464.681
  H     -630.719    -494.741     466.245
  H     -626.998    -493.964     465.886
  H     -628.791    -495.047     468.138
  H     -626.985    -488.320     465.128
  H     -627.440    -496.953     468.295
  H     -626.016    -489.609     465.678
  H     -627.166    -497.374     465.541
  H     -629.724    -497.655     465.475
  H     -628.932    -498.545     466.773
  P     -624.874    -497.410     467.774
  C     -622.865    -496.541     466.249
  O     -623.328    -497.068     467.487
  O     -625.221    -498.526     466.694
  O     -625.102    -497.882     469.171
  H     -625.656    -499.288     467.112
  H     -621.806    -496.397     466.297
  H     -623.344    -495.604     466.059
  H     -623.097    -497.226     465.461

 6  7  8  9  10  11  12  13  14  15  26  29  33  34 0
 6-311+G(2d,p)
 ****
 36  38  39  40  41 0
 6-311+G(2d,p)
 ****
 1  2  3  4  5  16  17  18  19  20  21  22  23  24  25 0
 3-21G
 ****
 27  28  30  31  32  35  37  42  43  44  45  46  47 0
 3-21G
 ****
 48  49 0
 3-21G
 ****


