%nproc=1
%NoSave
%Mem=1900MB
#P OB98/GEN NMR

erre ene a

0 1
  C     -149.904     -38.489     -97.824
  O     -149.777     -37.123     -97.417
  P     -148.335     -36.637     -96.907
  C     -147.615     -35.309     -99.050
  O     -148.037     -35.271     -97.696
  C     -147.305     -33.895     -99.541
  O     -146.402     -33.933    -100.673
  C     -148.526     -33.122    -100.021
  O     -149.321     -32.683     -98.932
  C     -147.861     -32.010    -100.824
  O     -147.397     -30.973     -99.947
  C     -146.662     -32.744    -101.456
  N     -146.863     -33.064    -102.864
  C     -146.209     -32.240    -103.774
  O     -145.516     -31.282    -103.435
  N     -146.392     -32.545    -105.095
  C     -147.174     -33.551    -105.584
  O     -147.290     -33.782    -106.781
  C     -147.880     -34.356    -104.579
  C     -147.697     -34.083    -103.282
  O     -147.381     -37.714     -97.605
  O     -148.232     -36.567     -95.422
  H     -147.698     -37.990     -98.484
  H     -148.170     -30.697     -99.413
  H     -145.913     -31.969    -105.772
  H     -148.528     -35.149    -104.931
  H     -148.212     -34.665    -102.527
  H     -145.757     -32.128    -101.377
  H     -148.546     -31.550    -101.543
  H     -149.125     -33.755    -100.689
  H     -146.810     -33.353     -98.724
  H     -148.403     -35.742     -99.676
  H     -146.737     -35.955     -99.129
  P     -150.901     -32.951     -99.038
  C     -151.064     -35.086     -97.538
  O     -151.324     -33.710     -97.689
  O     -150.950     -34.093    -100.158
  O     -151.697     -31.729     -99.364
  H     -150.278     -34.779    -100.028
  H     -151.092     -35.336     -96.472
  H     -150.083     -35.358     -97.937
  H     -151.840     -35.663     -98.051
  H     -150.910     -38.676     -98.138
  H     -149.662     -39.130     -97.002
  H     -149.235     -38.683     -98.636

 3  4  5  6  7  8  9  10  11  12  13  24  28  29  30  31  32 0
 6-311+G(2d,p)
 ****
 33  34 0
 6-311+G(2d,p)
 ****
 1  2  14  15  16  17  18  19  20  21  22  23  25  26  27 0
 3-21G
 ****
 35  36  37  38  39  40  41  42  43  44  45 0
 3-21G
 ****


