%nproc=1
%NoSave
%Mem=1900MB
#P OB98/GEN NMR

erre ene a

0 1
  C      260.034     244.540     411.407
  O      259.879     243.206     410.924
  P      258.700     242.306     411.540
  C      257.209     242.051     409.447
  O      258.083     241.399     410.364
  C      257.298     241.396     408.058
  O      258.544     241.800     407.425
  C      257.324     239.861     408.066
  O      256.076     239.165     408.018
  C      258.036     239.567     406.748
  O      257.091     239.615     405.659
  C      259.031     240.716     406.612
  N      263.761     239.662     404.967
  C      262.633     239.999     404.311
  N      261.412     240.260     404.824
  C      261.427     240.164     406.161
  C      262.501     239.834     406.965
  C      263.721     239.570     406.317
  N      264.869     239.212     406.987
  N      262.132     239.824     408.296
  C      260.847     240.127     408.287
  N      260.379     240.353     407.023
  O      257.705     243.021     412.389
  O      259.514     241.226     412.407
  H      257.568     239.309     404.867
  H      259.013     241.033     413.221
  H      262.715     240.065     403.227
  H      260.225     240.188     409.170
  H      259.103     241.088     405.583
  H      258.480     238.568     406.730
  H      257.920     239.484     408.903
  H      256.468     241.753     407.437
  H      257.474     243.106     409.372
  H      265.689     238.998     406.442
  H      264.840     239.085     407.988
  H      256.201     242.007     409.865
  P      255.981     237.598     408.330
  C      254.060     237.961     410.064
  O      254.492     237.356     408.868
  O      257.058     237.063     409.211
  O      255.942     236.955     406.866
  H      255.133     237.142     406.365
  H      252.976     237.854     410.147
  H      254.311     239.022     410.082
  H      254.525     237.461     410.923
  H      260.855     245.008     410.905
  H      260.226     244.518     412.459
  H      259.138     245.094     411.219

 3  4  5  6  7  8  9  10  11  12  22  25  29  30  31  32 0
 6-311+G(2d,p)
 ****
 33  36  37 0
 6-311+G(2d,p)
 ****
 1  2  13  14  15  16  17  18  19  20  21  23  24  26 0
 3-21G
 ****
 27  28  34  35  38  39  40  41  42  43  44  45  46  47  48 0
 3-21G
 ****


