%nproc=1
%NoSave
%Mem=1900MB
#P OB98/GEN NMR

erre ene a

0 1
  C     -807.470     -41.294    -211.585
  O     -807.265     -41.481    -210.198
  H     -807.319     -40.236    -211.822
  H     -808.492     -41.571    -211.859
  H     -806.756     -41.892    -212.155
  P     -807.549     -42.956    -209.631
  C     -805.156     -43.963    -209.882
  O     -806.479     -43.869    -210.404
  C     -804.826     -45.425    -209.581
  O     -805.672     -45.933    -208.524
  C     -805.048     -46.364    -210.759
  O     -803.993     -46.318    -211.704
  C     -805.096     -47.697    -210.039
  O     -803.757     -48.099    -209.667
  C     -805.929     -47.333    -208.789
  N     -807.360     -47.567    -208.968
  C     -807.735     -48.819    -209.480
  O     -806.884     -49.658    -209.764
  N     -809.068     -49.072    -209.681
  C     -809.955     -48.175    -209.396
  N     -811.266     -48.481    -209.630
  C     -809.613     -46.852    -208.843
  C     -808.311     -46.620    -208.655
  O     -808.927     -43.371    -210.338
  O     -807.547     -43.102    -208.144
  H     -803.276     -48.275    -210.496
  H     -809.127     -44.323    -210.148
  H     -810.383     -46.128    -208.623
  H     -807.982     -45.667    -208.258
  H     -805.591     -47.898    -207.913
  H     -805.514     -48.509    -210.646
  H     -806.016     -46.191    -211.239
  H     -803.790     -45.469    -209.224
  H     -811.466     -49.370    -210.069
  H     -805.102     -43.371    -208.966
  H     -811.992     -47.780    -209.611
  H     -804.441     -43.575    -210.604
  P     -804.274     -46.934    -213.164
  C     -804.873     -44.660    -214.275
  O     -805.327     -45.953    -213.888
  O     -805.151     -48.232    -212.848
  O     -803.049     -47.260    -213.959
  H     -804.910     -48.971    -213.434
  H     -805.675     -44.125    -214.740
  H     -804.062     -44.759    -214.966
  H     -804.541     -44.125    -213.410

 6  7  8  9  10  11  12  13  14  15  16  26  30  31  32  33  35 0
 6-311+G(2d,p)
 ****
 37  38 0
 6-311+G(2d,p)
 ****
 1  2  3  4  5  17  18  19  20  21  22  23  24  25 0
 3-21G
 ****
 27  28  29  34  36  39  40  41  42  43  44  45  46 0
 3-21G
 ****


