%nproc=1
%NoSave
%Mem=1900MB
#P OB98/GEN NMR

erre ene a

0 1
  C     -147.643      56.399     151.595
  O     -147.676      55.451     152.642
  H     -148.572      56.317     151.024
  H     -146.806      56.189     150.927
  H     -147.563      57.414     151.991
  P     -146.495      55.449     153.724
  C     -144.474      54.598     152.363
  O     -145.124      55.725     152.933
  C     -142.953      54.731     152.486
  O     -142.607      54.823     153.892
  C     -142.181      53.551     151.891
  O     -140.987      54.033     151.275
  C     -141.832      52.711     153.104
  O     -140.665      51.917     152.895
  C     -141.661      53.776     154.185
  N     -139.536      52.879     158.679
  C     -139.033      53.531     157.571
  N     -137.770      53.998     157.663
  N     -139.709      53.707     156.465
  C     -140.967      53.206     156.522
  C     -141.580      52.542     157.558
  C     -140.813      52.336     158.768
  O     -141.199      51.753     159.775
  N     -142.859      52.172     157.225
  C     -143.016      52.610     155.990
  N     -141.894      53.235     155.514
  O     -146.465      54.254     154.623
  O     -146.714      56.798     154.551
  H     -139.914      52.539     152.779
  H     -147.091      56.612     155.430
  H     -138.969      52.761     159.500
  H     -143.916      52.501     155.398
  H     -140.654      54.209     154.190
  H     -142.665      52.039     153.342
  H     -137.201      53.919     158.492
  H     -142.771      52.997     151.161
  H     -137.388      54.507     156.875
  H     -142.647      55.676     152.020
  H     -144.754      54.539     151.307
  H     -144.814      53.690     152.872
  P     -140.871      54.010     149.676
  C     -139.849      51.696     149.224
  O     -141.023      52.494     149.168
  O     -139.707      54.750     149.107
  O     -142.255      54.674     149.210
  H     -142.098      55.193     148.396
  H     -140.069      50.713     148.863
  H     -139.506      51.636     150.236
  H     -139.088      52.138     148.615

 6  7  8  9  10  11  12  13  14  15  26  29  33  34 0
 6-311+G(2d,p)
 ****
 36  38  39  40  41 0
 6-311+G(2d,p)
 ****
 1  2  3  4  5  16  17  18  19  20  21  22  23  24  25 0
 3-21G
 ****
 27  28  30  31  32  35  37  42  43  44  45  46  47 0
 3-21G
 ****
 48  49 0
 3-21G
 ****


