%nproc=1
%NoSave
%Mem=1900MB
#P OB98/GEN NMR

erre ene a

0 1
  C     -176.645     249.307     -88.376
  O     -177.300     249.883     -87.265
  H     -177.021     248.295     -88.546
  H     -176.855     249.915     -89.260
  H     -175.563     249.281     -88.215
  P     -176.982     249.243     -85.828
  C     -176.475     251.469     -84.582
  O     -177.365     250.374     -84.752
  C     -176.687     252.504     -85.690
  O     -178.062     252.969     -85.640
  C     -175.776     253.729     -85.563
  O     -175.362     254.134     -86.869
  C     -176.688     254.785     -84.960
  O     -176.256     256.106     -85.265
  C     -178.034     254.408     -85.569
  N     -180.895     258.503     -84.515
  C     -179.926     258.289     -85.430
  N     -179.216     257.164     -85.651
  C     -179.629     256.177     -84.836
  C     -180.603     256.241     -83.855
  C     -181.249     257.480     -83.697
  N     -182.213     257.717     -82.743
  N     -180.715     255.027     -83.202
  C     -179.827     254.247     -83.780
  N     -179.145     254.899     -84.772
  O     -175.378     249.234     -85.807
  O     -177.551     247.889     -85.577
  H     -176.405     256.264     -86.220
  H     -175.051     248.471     -86.319
  H     -179.685     259.138     -86.065
  H     -179.633     253.215     -83.519
  H     -178.163     254.808     -86.585
  H     -176.708     254.675     -83.870
  H     -174.898     253.543     -84.943
  H     -176.556     252.010     -86.662
  H     -175.446     251.100     -84.619
  H     -182.582     258.649     -82.665
  H     -182.444     256.986     -82.086
  H     -176.656     251.932     -83.607
  P     -174.056     253.416     -87.464
  C     -174.939     253.219     -89.894
  O     -173.949     253.762     -89.032
  O     -174.441     251.864     -87.442
  O     -172.814     253.682     -86.674
  H     -173.727     251.349     -87.023
  H     -174.745     253.529     -90.900
  H     -175.904     253.569     -89.593
  H     -174.913     252.151     -89.838

 6  7  8  9  10  11  12  13  14  15  25  28  32  33  34  35 0
 6-311+G(2d,p)
 ****
 36  39  40 0
 6-311+G(2d,p)
 ****
 1  2  3  4  5  16  17  18  19  20  21  22  23  24 0
 3-21G
 ****
 26  27  29  30  31  37  38  41  42  43  44  45  46  47 0
 3-21G
 ****
 48 0
 3-21G
 ****


