%nproc=1
%NoSave
%Mem=1900MB
#P OB98/GEN NMR

erre ene a

0 1
  C      304.414    -927.999     402.550
  O      305.691    -927.576     402.129
  H      304.292    -927.748     403.608
  H      304.313    -929.085     402.435
  H      303.637    -927.490     401.974
  P      306.086    -927.887     400.602
  C      305.197    -925.532     400.058
  O      305.137    -926.918     399.740
  C      305.430    -924.701     398.790
  O      306.781    -924.942     398.332
  C      304.478    -925.056     397.646
  O      304.120    -923.870     396.940
  C      305.317    -925.945     396.745
  O      304.874    -925.923     395.391
  C      306.721    -925.367     396.951
  N      311.379    -926.020     394.973
  C      310.650    -924.904     395.231
  N      309.418    -924.829     395.776
  C      308.964    -926.048     396.107
  C      309.582    -927.260     395.902
  C      310.852    -927.222     395.298
  N      311.585    -928.346     395.004
  N      308.773    -928.306     396.340
  C      307.694    -927.713     396.810
  N      307.756    -926.354     396.678
  O      306.056    -929.326     400.211
  O      307.513    -927.175     400.482
  H      303.946    -926.227     395.357
  H      307.507    -926.293     400.899
  H      311.112    -923.961     394.964
  H      306.833    -928.218     397.248
  H      306.917    -924.497     396.313
  H      305.275    -926.987     397.096
  H      303.578    -925.569     397.994
  H      305.365    -923.636     399.051
  H      306.003    -925.339     400.775
  H      312.500    -928.226     394.581
  H      311.221    -929.257     395.259
  H      304.244    -925.252     400.520
  P      302.572    -923.640     396.579
  C      302.394    -921.976     398.545
  O      301.804    -923.097     397.879
  O      301.903    -924.754     395.857
  O      302.636    -922.333     395.651
  H      301.986    -922.406     394.932
  H      301.795    -921.708     399.390
  H      302.448    -921.148     397.869
  H      303.379    -922.234     398.873

 6  7  8  9  10  11  12  13  14  15  25  28  32  33  34  35 0
 6-311+G(2d,p)
 ****
 36  39  40 0
 6-311+G(2d,p)
 ****
 1  2  3  4  5  16  17  18  19  20  21  22  23  24 0
 3-21G
 ****
 26  27  29  30  31  37  38  41  42  43  44  45  46  47 0
 3-21G
 ****
 48 0
 3-21G
 ****


