%nproc=1
%NoSave
%Mem=1900MB
#P OB98/GEN NMR

erre ene a

0 1
  C      -17.974     -95.545     -26.584
  O      -18.279     -94.488     -25.695
  H      -18.657     -96.377     -26.392
  H      -16.947     -95.886     -26.422
  H      -18.096     -95.215     -27.619
  P      -17.339     -93.191     -25.781
  C      -16.123     -93.846     -23.588
  O      -16.884     -92.864     -24.277
  C      -16.887     -94.352     -22.365
  O      -16.178     -95.442     -21.736
  C      -17.120     -93.298     -21.286
  O      -18.257     -92.508     -21.583
  C      -17.314     -94.173     -20.058
  O      -18.659     -94.706     -20.009
  C      -16.297     -95.295     -20.295
  N      -13.578     -95.517     -16.043
  C      -14.917     -95.761     -16.256
  N      -15.658     -96.082     -15.171
  N      -15.495     -95.683     -17.429
  C      -14.649     -95.294     -18.412
  C      -13.302     -95.024     -18.327
  C      -12.666     -95.168     -17.035
  O      -11.470     -95.049     -16.797
  N      -12.788     -94.675     -19.550
  C      -13.828     -94.704     -20.364
  N      -14.982     -95.066     -19.718
  O      -18.366     -92.004     -26.118
  O      -16.245     -93.256     -26.791
  H      -18.848     -95.166     -20.846
  H      -17.936     -91.385     -26.737
  H      -13.182     -95.624     -15.124
  H      -13.795     -94.483     -21.423
  H      -16.644     -96.257     -19.901
  H      -17.177     -93.607     -19.135
  H      -15.349     -95.878     -14.229
  H      -16.227     -92.673     -21.148
  H      -16.655     -96.187     -15.317
  H      -17.845     -94.755     -22.721
  H      -15.176     -93.399     -23.265
  H      -15.914     -94.680     -24.264
  P      -18.161     -90.924     -21.362
  C      -19.486     -91.033     -19.131
  O      -19.396     -90.479     -20.438
  O      -18.541     -90.337     -22.804
  O      -16.822     -90.438     -20.922
  H      -17.738     -90.009     -23.251
  H      -20.354     -90.646     -18.639
  H      -18.612     -90.771     -18.572
  H      -19.560     -92.098     -19.199

 6  7  8  9  10  11  12  13  14  15  26  29  33  34 0
 6-311+G(2d,p)
 ****
 36  38  39  40  41 0
 6-311+G(2d,p)
 ****
 1  2  3  4  5  16  17  18  19  20  21  22  23  24  25 0
 3-21G
 ****
 27  28  30  31  32  35  37  42  43  44  45  46  47 0
 3-21G
 ****
 48  49 0
 3-21G
 ****


