%nproc=1
%NoSave
%Mem=1900MB
#P OB98/GEN NMR

erre ene a

0 1
  C     -177.913    -196.193     418.781
  O     -178.302    -197.117     417.784
  P     -177.351    -198.348     417.413
  C     -179.318    -199.991     417.599
  O     -177.995    -199.678     418.036
  C     -179.826    -201.244     418.319
  O     -180.093    -200.949     419.713
  C     -181.129    -201.795     417.757
  O     -180.909    -202.495     416.547
  C     -181.608    -202.663     418.918
  O     -180.947    -203.939     418.904
  C     -181.153    -201.839     420.135
  N     -185.411    -202.140     422.935
  C     -184.642    -203.085     422.368
  N     -183.535    -202.930     421.599
  C     -183.273    -201.625     421.423
  C     -183.994    -200.538     421.910
  C     -185.101    -200.834     422.719
  N     -185.861    -199.872     423.357
  N     -183.425    -199.355     421.482
  C     -182.392    -199.712     420.751
  N     -182.227    -201.070     420.733
  O     -175.901    -198.148     417.725
  O     -177.570    -198.542     415.843
  H     -181.237    -204.399     418.091
  H     -176.721    -198.415     415.373
  H     -184.932    -204.117     422.561
  H     -181.732    -199.035     420.217
  H     -180.732    -202.475     420.924
  H     -182.684    -202.849     418.887
  H     -181.846    -200.974     417.602
  H     -179.034    -202.002     418.282
  H     -179.291    -200.172     416.520
  H     -186.538    -200.204     424.029
  H     -185.466    -198.944     423.464
  H     -179.977    -199.147     417.807
  P     -181.412    -201.873     415.161
  C     -179.143    -201.194     414.173
  O     -180.347    -200.740     414.752
  O     -182.842    -201.448     415.130
  O     -181.119    -203.034     414.104
  H     -181.792    -203.005     413.395
  H     -178.478    -201.572     414.961
  H     -178.655    -200.362     413.665
  H     -179.328    -201.994     413.444
  H     -178.671    -195.445     418.889
  H     -176.992    -195.729     418.497
  H     -177.782    -196.706     419.711

 3  4  5  6  7  8  9  10  11  12  22  25  29  30  31  32 0
 6-311+G(2d,p)
 ****
 33  36  37 0
 6-311+G(2d,p)
 ****
 1  2  13  14  15  16  17  18  19  20  21  23  24  26 0
 3-21G
 ****
 27  28  34  35  38  39  40  41  42  43  44  45  46  47  48 0
 3-21G
 ****


