%nproc=1
%NoSave
%Mem=1900MB
#P OB98/GEN NMR

erre ene a

0 1
  C      163.026     -44.710     526.703
  O      163.676     -45.620     525.803
  P      164.878     -46.591     526.240
  C      166.721     -45.107     525.180
  O      166.087     -46.382     525.205
  C      168.032     -45.167     524.394
  O      168.988     -46.016     525.066
  C      167.924     -45.766     522.994
  O      167.294     -44.890     522.078
  C      169.393     -46.054     522.679
  O      170.058     -44.889     522.167
  C      169.956     -46.414     524.068
  N      170.295     -47.826     524.201
  C      171.227     -48.334     523.297
  O      171.670     -47.629     522.393
  N      171.628     -49.643     523.434
  C      171.058     -50.401     524.322
  N      171.510     -51.681     524.425
  C      169.969     -49.936     525.200
  C      169.642     -48.650     525.091
  O      164.471     -48.017     526.415
  O      165.440     -45.976     527.610
  H      165.852     -46.687     528.139
  H      169.950     -44.186     522.838
  H      169.493     -50.613     525.902
  H      168.862     -48.224     525.712
  H      170.851     -45.814     524.280
  H      169.502     -46.848     521.936
  H      167.371     -46.710     523.047
  H      168.442     -44.147     524.340
  H      172.266     -51.961     523.810
  H      166.941     -44.811     526.214
  H      171.155     -52.341     525.098
  H      166.035     -44.373     524.747
  P      165.702     -44.998     521.943
  C      166.019     -47.018     520.350
  O      165.376     -45.786     520.584
  O      165.247     -43.491     521.633
  O      165.014     -45.533     523.162
  H      164.413     -43.296     522.104
  H      165.377     -47.628     519.703
  H      166.206     -47.563     521.278
  H      166.963     -46.839     519.836
  H      162.261     -44.176     526.179
  H      163.744     -44.017     527.090
  H      162.588     -45.259     527.511

 3  4  5  6  7  8  9  10  11  12  13  24  27  28  29  30  32 0
 6-311+G(2d,p)
 ****
 34  35 0
 6-311+G(2d,p)
 ****
 1  2  14  15  16  17  18  19  20  21  22  23  25  26 0
 3-21G
 ****
 31  33  36  37  38  39  40  41  42  43  44  45  46 0
 3-21G
 ****


