%nproc=1
%NoSave
%Mem=1900MB
#P OB98/GEN NMR

erre ene a

0 1
  C        7.186     456.027    -499.669
  O        7.364     454.696    -499.229
  H        8.146     456.406    -500.039
  H        6.864     456.652    -498.832
  H        6.454     456.069    -500.474
  P        6.041     453.885    -498.811
  C        5.978     455.484    -496.728
  O        5.273     454.833    -497.764
  C        5.257     456.774    -496.304
  O        3.948     456.417    -495.780
  C        5.996     457.564    -495.217
  O        5.793     458.960    -495.464
  C        5.277     457.160    -493.944
  O        5.433     458.133    -492.913
  C        3.838     456.970    -494.457
  N        3.045     456.116    -493.579
  C        2.851     456.569    -492.263
  O        3.347     457.640    -491.900
  N        2.135     455.788    -491.393
  C        1.702     454.626    -491.773
  N        1.022     453.893    -490.856
  C        1.930     454.090    -493.126
  C        2.583     454.878    -493.978
  O        6.640     452.718    -497.901
  O        5.221     453.416    -499.967
  H        4.976     457.803    -492.101
  H        7.312     453.025    -497.270
  H        1.554     453.104    -493.396
  H        2.784     454.569    -494.990
  H        3.328     457.944    -494.546
  H        5.673     456.209    -493.571
  H        7.074     457.343    -495.190
  H        5.093     457.380    -497.194
  H        0.910     454.291    -489.927
  H        6.998     455.725    -497.054
  H        0.690     452.954    -491.018
  H        6.058     454.798    -495.882
  P        6.838     459.770    -496.360
  C        7.842     461.041    -494.347
  O        8.100     460.181    -495.452
  O        6.276     460.861    -497.201
  O        7.463     458.608    -497.294
  H        7.564     458.974    -498.196
  H        8.756     461.238    -493.827
  H        7.148     460.570    -493.683
  H        7.428     461.962    -494.701

 6  7  8  9  10  11  12  13  14  15  16  26  30  31  32  33  35 0
 6-311+G(2d,p)
 ****
 37  38 0
 6-311+G(2d,p)
 ****
 1  2  3  4  5  17  18  19  20  21  22  23  24  25 0
 3-21G
 ****
 27  28  29  34  36  39  40  41  42  43  44  45  46 0
 3-21G
 ****


