%nproc=1
%NoSave
%Mem=1900MB
#P OB98/GEN NMR

erre ene a

0 1
  C     -535.697     364.416    -898.520
  O     -536.256     365.686    -898.750
  H     -534.608     364.479    -898.640
  H     -536.089     363.685    -899.230
  H     -535.932     364.086    -897.500
  P     -537.860     365.802    -898.670
  C     -538.220     367.314    -896.610
  O     -538.160     365.984    -897.090
  C     -537.221     367.524    -895.470
  O     -535.879     367.369    -896.010
  C     -537.296     368.907    -894.820
  O     -537.097     368.799    -893.420
  C     -536.130     369.659    -895.450
  O     -535.671     370.739    -894.610
  C     -535.119     368.537    -895.660
  N     -530.896     371.167    -896.820
  C     -531.501     370.914    -895.650
  N     -532.633     370.201    -895.420
  C     -533.088     369.645    -896.570
  C     -532.567     369.803    -897.860
  C     -531.417     370.627    -897.960
  N     -530.788     370.892    -899.140
  N     -533.332     369.121    -898.760
  C     -534.294     368.570    -898.070
  N     -534.189     368.854    -896.730
  O     -538.623     364.711    -899.350
  O     -538.110     367.274    -899.230
  H     -536.430     371.304    -894.400
  H     -537.473     367.928    -898.870
  H     -531.054     371.377    -894.770
  H     -535.100     367.960    -898.490
  H     -534.514     368.354    -894.760
  H     -536.451     370.103    -896.410
  H     -538.259     369.416    -895.010
  H     -537.372     366.732    -894.710
  H     -539.240     367.546    -896.250
  H     -529.963     371.459    -899.150
  H     -531.155     370.477    -900.000
  H     -538.004     368.000    -897.440
  P     -538.362     368.495    -892.480
  C     -537.748     366.144    -891.560
  O     -538.605     366.903    -892.430
  O     -539.586     369.329    -892.720
  O     -537.770     368.795    -891.010
  H     -538.495     369.210    -890.460
  H     -538.009     365.108    -891.617
  H     -537.868     366.487    -890.554
  H     -536.730     366.272    -891.862

 6  7  8  9  10  11  12  13  14  15  25  28  32  33  34  35 0
 6-311+G(2d,p)
 ****
 36  39  40 0
 6-311+G(2d,p)
 ****
 1  2  3  4  5  16  17  18  19  20  21  22  23  24 0
 3-21G
 ****
 26  27  29  30  31  37  38  41  42  43  44  45  46  47 0
 3-21G
 ****
 48 0
 3-21G
 ****


