%nproc=1
%NoSave
%Mem=1900MB
#P OB98/GEN NMR

erre ene a

0 1
  C     -377.867    -225.588     -39.450
  O     -376.754    -226.318     -38.957
  P     -375.311    -225.621     -39.037
  C     -374.112    -227.274     -37.375
  O     -374.251    -226.777     -38.700
  C     -373.036    -228.366     -37.333
  O     -373.335    -229.386     -38.308
  C     -371.631    -227.882     -37.669
  O     -371.038    -227.192     -36.584
  C     -370.951    -229.198     -38.042
  O     -370.559    -229.906     -36.855
  C     -372.085    -229.949     -38.761
  N     -371.978    -229.893     -40.219
  C     -370.720    -230.169     -40.754
  O     -369.741    -230.448     -40.062
  N     -370.624    -230.097     -42.117
  C     -371.618    -229.719     -42.977
  O     -371.462    -229.628     -44.189
  C     -372.913    -229.406     -42.351
  C     -373.030    -229.509     -41.024
  O     -375.352    -224.706     -37.728
  O     -375.085    -224.888     -40.318
  H     -375.940    -225.074     -37.046
  H     -369.851    -229.377     -36.435
  H     -369.727    -230.314     -42.531
  H     -373.723    -229.094     -42.999
  H     -373.973    -229.273     -40.547
  H     -372.095    -231.001     -38.459
  H     -370.050    -229.045     -38.645
  H     -371.664    -227.223     -38.546
  H     -373.060    -228.827     -36.339
  H     -375.068    -227.689     -37.051
  H     -373.844    -226.446     -36.708
  P     -370.026    -225.996     -36.957
  C     -370.285    -224.678     -34.711
  O     -369.457    -225.439     -35.564
  O     -371.049    -224.867     -37.444
  O     -368.995    -226.376     -37.966
  H     -371.842    -224.804     -36.882
  H     -369.865    -224.703     -33.703
  H     -371.300    -225.078     -34.680
  H     -370.308    -223.639     -35.061
  H     -378.756    -226.172     -39.333
  H     -377.718    -225.368     -40.486
  H     -377.965    -224.674     -38.902

 3  4  5  6  7  8  9  10  11  12  13  24  28  29  30  31  32 0
 6-311+G(2d,p)
 ****
 33  34 0
 6-311+G(2d,p)
 ****
 1  2  14  15  16  17  18  19  20  21  22  23  25  26  27 0
 3-21G
 ****
 35  36  37  38  39  40  41  42  43  44  45 0
 3-21G
 ****


