%nproc=1
%NoSave
%Mem=1900MB
#P OB98/GEN NMR

erre ene a

0 1
  C      529.237    -367.305    -691.542
  O      529.919    -367.652    -690.340
  P      531.207    -368.611    -690.454
  C      532.809    -366.906    -689.316
  O      532.521    -367.700    -690.459
  C      533.988    -365.958    -689.608
  O      533.827    -365.277    -690.875
  C      534.152    -364.870    -688.555
  O      534.882    -365.321    -687.431
  C      534.991    -363.844    -689.337
  O      536.377    -364.259    -689.342
  C      534.412    -363.953    -690.753
  N      533.592    -359.171    -692.208
  C      534.780    -359.866    -692.060
  N      535.916    -359.185    -692.343
  N      534.843    -361.115    -691.673
  C      533.624    -361.660    -691.424
  C      532.386    -361.072    -691.521
  C      532.329    -359.692    -691.945
  O      531.323    -359.019    -692.089
  N      531.383    -361.941    -691.191
  C      532.015    -363.080    -690.890
  N      533.374    -362.952    -691.013
  O      531.122    -369.139    -691.968
  O      531.219    -369.753    -689.469
  H      536.684    -364.163    -688.422
  H      531.535    -370.011    -692.036
  H      533.601    -358.204    -692.502
  H      531.524    -363.994    -690.609
  H      535.176    -363.852    -691.536
  H      534.958    -362.846    -688.882
  H      535.922    -358.250    -692.698
  H      533.195    -364.429    -688.283
  H      536.803    -359.697    -692.280
  H      534.914    -366.572    -689.639
  H      533.061    -367.558    -688.472
  H      531.908    -366.347    -689.022
  P      534.048    -365.703    -686.101
  C      534.312    -368.274    -686.496
  O      533.425    -367.162    -686.373
  O      532.784    -364.727    -686.180
  O      534.787    -365.542    -684.828
  H      532.480    -364.475    -685.295
  H      533.706    -369.187    -686.504
  H      534.984    -368.306    -685.633
  H      534.876    -368.199    -687.417
  H      528.409    -366.668    -691.311
  H      528.881    -368.194    -692.020
  H      529.909    -366.792    -692.198

 3  4  5  6  7  8  9  10  11  12  23  26  30  31 0
 6-311+G(2d,p)
 ****
 33  35  36  37  38 0
 6-311+G(2d,p)
 ****
 1  2  13  14  15  16  17  18  19  20  21  22  24  25 0
 3-21G
 ****
 27  28  29  32  34  39  40  41  42  43  44  45  46  47  48  49 0
 3-21G
 ****


