%nproc=1
%NoSave
%Mem=1900MB
#P OB98/GEN NMR

erre ene a

0 1
  C     -894.370     -75.027     205.823
  O     -894.280     -74.680     207.209
  P     -895.580     -74.091     207.932
  C     -895.700     -75.974     209.700
  O     -895.550     -74.574     209.461
  C     -894.800     -76.440     210.841
  O     -893.410     -76.141     210.569
  C     -895.110     -75.780     212.166
  O     -896.320     -76.293     212.730
  C     -893.840     -76.056     212.950
  O     -893.860     -77.369     213.521
  C     -892.750     -75.977     211.859
  N     -891.990     -74.744     211.900
  C     -890.860     -74.753     212.707
  O     -890.570     -75.750     213.384
  N     -890.080     -73.621     212.773
  C     -890.400     -72.570     212.075
  N     -889.590     -71.476     212.184
  C     -891.590     -72.526     211.212
  C     -892.330     -73.625     211.174
  O     -896.880     -74.288     207.220
  O     -895.220     -72.515     208.064
  H     -893.080     -77.416     214.124
  H     -896.050     -72.014     208.049
  H     -891.810     -71.620     210.640
  H     -893.220     -73.664     210.554
  H     -892.060     -76.807     211.962
  H     -893.710     -75.348     213.785
  H     -895.220     -74.677     212.017
  H     -894.900     -77.519     210.931
  H     -888.780     -71.546     212.791
  H     -895.450     -76.518     208.774
  H     -889.730     -70.653     211.633
  H     -896.750     -76.184     209.909
  P     -897.520     -75.266     213.007
  C     -899.280     -76.893     211.982
  O     -898.870     -76.136     213.117
  O     -897.670     -74.528     211.601
  O     -897.280     -74.303     214.120
  H     -897.930     -73.594     211.756
  H     -900.000     -77.634     212.309
  H     -898.430     -77.410     211.525
  H     -899.740     -76.228     211.250
  H     -893.426     -75.403     205.488
  H     -894.630     -74.159     205.254
  H     -895.121     -75.778     205.691

 3  4  5  6  7  8  9  10  11  12  13  23  27  28  29  30  32 0
 6-311+G(2d,p)
 ****
 34  35 0
 6-311+G(2d,p)
 ****
 1  2  14  15  16  17  18  19  20  21  22  24  25  26 0
 3-21G
 ****
 31  33  36  37  38  39  40  41  42  43  44  45  46 0
 3-21G
 ****


