%nproc=1
%NoSave
%Mem=1900MB
#P OB98/GEN NMR

erre ene a

0 1
  C     -185.079     411.472     118.147
  O     -185.901     410.427     117.671
  H     -185.613     412.417     118.026
  H     -184.149     411.517     117.572
  H     -184.848     411.332     119.208
  P     -185.412     408.910     117.854
  C     -185.064     408.560     115.325
  O     -184.457     408.576     116.610
  C     -184.520     407.390     114.507
  O     -185.375     407.131     113.368
  C     -183.128     407.632     113.937
  O     -182.140     407.501     114.943
  C     -183.084     406.569     112.850
  O     -182.799     405.273     113.400
  C     -184.535     406.618     112.310
  N     -184.658     407.431     111.093
  C     -184.040     406.924     109.953
  O     -183.418     405.866     109.940
  N     -184.128     407.708     108.830
  C     -184.681     408.955     108.772
  O     -184.542     409.712     107.813
  C     -185.381     409.405     109.980
  C     -185.324     408.642     111.074
  O     -186.488     407.908     118.114
  O     -184.380     408.994     119.080
  H     -184.825     408.686     119.894
  H     -183.518     405.070     114.025
  H     -183.643     407.373     108.014
  H     -185.887     410.361     109.955
  H     -185.811     408.968     111.993
  H     -184.894     405.608     112.082
  H     -182.319     406.772     112.097
  H     -183.079     408.620     113.466
  H     -184.531     406.495     115.144
  H     -184.825     409.502     114.816
  H     -186.151     408.482     115.442
  P     -180.917     408.530     115.037
  C     -179.446     407.307     113.331
  O     -180.142     408.505     113.634
  O     -180.038     408.354     116.233
  O     -181.608     409.972     115.044
  H     -181.286     410.479     115.812
  H     -178.969     407.403     112.378
  H     -180.137     406.490     113.304
  H     -178.707     407.124     114.083

 6  7  8  9  10  11  12  13  14  15  16  27  31  32  33  34  35 0
 6-311+G(2d,p)
 ****
 36  37 0
 6-311+G(2d,p)
 ****
 1  2  3  4  5  17  18  19  20  21  22  23  24  25 0
 3-21G
 ****
 26  28  29  30  38  39  40  41  42  43  44  45 0
 3-21G
 ****


