%nproc=1
%NoSave
%Mem=1900MB
#P OB98/GEN NMR

erre ene a

0 1
  C     -172.519     194.570     145.722
  O     -173.278     195.569     145.064
  P     -174.216     196.517     145.952
  C     -176.375     195.214     145.336
  O     -175.517     195.674     146.370
  C     -177.843     195.362     145.741
  O     -178.696     194.891     144.662
  C     -178.217     194.562     146.993
  O     -179.220     195.279     147.732
  C     -178.871     193.315     146.436
  O     -179.745     192.710     147.389
  C     -179.575     193.887     145.206
  N     -183.247     191.725     142.490
  C     -183.261     192.911     143.196
  N     -184.443     193.561     143.256
  N     -182.211     193.416     143.787
  C     -181.099     192.653     143.648
  C     -180.959     191.468     142.959
  C     -182.134     190.915     142.323
  O     -182.193     189.855     141.706
  N     -179.671     191.004     143.016
  C     -179.037     191.882     143.771
  N     -179.872     192.879     144.211
  O     -174.778     197.567     144.880
  O     -173.516     197.214     147.069
  H     -180.068     191.879     146.990
  H     -174.330     198.426     144.995
  H     -184.087     191.371     142.062
  H     -177.992     191.830     144.051
  H     -180.516     194.382     145.473
  H     -178.107     192.582     146.160
  H     -185.305     193.193     142.880
  H     -177.374     194.334     147.656
  H     -184.492     194.410     143.805
  H     -178.061     196.426     145.881
  H     -176.164     194.161     145.140
  H     -176.179     195.778     144.419
  P     -179.282     194.977     149.309
  C     -181.606     193.810     149.253
  O     -180.214     193.688     149.471
  O     -180.182     196.171     149.875
  O     -177.946     194.906     149.971
  H     -179.972     196.339     150.814
  H     -181.887     193.184     148.399
  H     -181.909     194.841     149.053
  H     -182.137     193.455     150.141
  H     -171.948     194.023     145.001
  H     -173.178     193.902     146.236
  H     -171.858     195.030     146.426

 3  4  5  6  7  8  9  10  11  12  23  26  30  31 0
 6-311+G(2d,p)
 ****
 33  35  36  37  38 0
 6-311+G(2d,p)
 ****
 1  2  13  14  15  16  17  18  19  20  21  22  24  25 0
 3-21G
 ****
 27  28  29  32  34  39  40  41  42  43  44  45  46  47  48  49 0
 3-21G
 ****


