%nproc=1
%NoSave
%Mem=1900MB
#P OB98/GEN NMR

erre ene a

0 1
  C       46.792     122.101      22.822
  O       47.993     122.827      22.644
  H       46.816     121.220      22.176
  H       45.934     122.719      22.544
  H       46.698     121.777      23.861
  P       48.123     124.198      23.469
  C       47.921     124.833      25.973
  O       47.646     123.871      24.967
  C       46.883     124.751      27.089
  O       45.609     125.262      26.641
  C       46.631     123.340      27.610
  O       47.600     122.977      28.579
  C       45.236     123.488      28.200
  O       45.290     124.100      29.507
  C       44.558     124.423      27.189
  N       40.488     121.667      26.030
  C       40.938     122.122      27.254
  N       40.212     121.767      28.338
  N       42.012     122.849      27.409
  C       42.672     123.079      26.249
  C       42.330     122.683      24.976
  C       41.109     121.924      24.815
  O       40.615     121.564      23.751
  N       43.246     123.129      24.056
  C       44.152     123.761      24.775
  N       43.851     123.754      26.112
  O       46.927     125.095      22.891
  O       49.431     124.900      23.343
  H       44.390     124.142      29.876
  H       47.229     126.021      22.835
  H       39.638     121.137      25.969
  H       45.033     124.247      24.376
  H       43.832     125.087      27.672
  H       44.752     122.520      28.335
  H       39.568     120.990      28.318
  H       46.602     122.615      26.788
  H       40.584     122.038      29.238
  H       47.222     125.406      27.902
  H       47.894     125.832      25.525
  H       48.919     124.652      26.383
  P       47.785     121.422      28.919
  C       49.281     119.585      27.858
  O       48.446     120.712      27.639
  O       46.280     120.876      28.917
  O       48.453     121.144      30.222
  H       45.983     120.721      29.832
  H       49.645     119.223      26.919
  H       48.720     118.814      28.344
  H       50.107     119.868      28.476

 6  7  8  9  10  11  12  13  14  15  26  29  33  34 0
 6-311+G(2d,p)
 ****
 36  38  39  40  41 0
 6-311+G(2d,p)
 ****
 1  2  3  4  5  16  17  18  19  20  21  22  23  24  25 0
 3-21G
 ****
 27  28  30  31  32  35  37  42  43  44  45  46  47 0
 3-21G
 ****
 48  49 0
 3-21G
 ****


