%nproc=1
%NoSave
%Mem=1900MB
#P OB98/GEN NMR

erre ene a

0 1
  C     -151.861     102.814       0.908
  O     -150.967     102.105       1.741
  H     -151.804     102.402      -0.102
  H     -151.583     103.870       0.869
  H     -152.890     102.716       1.268
  P     -151.000     102.375       3.321
  C     -152.760     100.535       3.728
  O     -152.447     101.917       3.839
  C     -153.160      99.981       5.094
  O     -154.458     100.483       5.478
  C     -153.273      98.461       5.138
  O     -151.994      97.856       5.174
  C     -154.107      98.276       6.400
  O     -153.287      98.380       7.573
  C     -155.084      99.472       6.301
  N     -156.395      99.103       5.767
  C     -157.043      98.044       6.394
  O     -156.545      97.409       7.325
  N     -158.281      97.724       5.901
  C     -158.880      98.294       4.816
  O     -159.974      97.933       4.381
  C     -158.137      99.385       4.171
  C     -156.947      99.733       4.667
  O     -150.582     103.741       3.756
  O     -150.033     101.245       3.915
  H     -152.611      97.679       7.505
  H     -149.158     101.632       4.111
  H     -158.761      96.950       6.335
  H     -158.581      99.857       3.302
  H     -156.381     100.533       4.201
  H     -155.234      99.923       7.289
  H     -154.597      97.304       6.441
  H     -153.852      98.099       4.279
  H     -152.428     100.337       5.833
  H     -151.876     100.002       3.362
  H     -153.576     100.413       3.007
  P     -151.795      96.334       4.727
  C     -151.279      96.998       2.306
  O     -152.132      96.243       3.158
  O     -152.496      95.325       5.575
  O     -150.209      96.124       4.770
  H     -149.967      95.582       5.549
  H     -151.586      96.870       1.289
  H     -150.271      96.658       2.419
  H     -151.338      98.034       2.569

 6  7  8  9  10  11  12  13  14  15  16  26  31  32  33  34  35 0
 6-311+G(2d,p)
 ****
 36  37 0
 6-311+G(2d,p)
 ****
 1  2  3  4  5  17  18  19  20  21  22  23  24  25 0
 3-21G
 ****
 27  28  29  30  38  39  40  41  42  43  44  45 0
 3-21G
 ****


