%nproc=1
%NoSave
%Mem=1900MB
#P OB98/GEN NMR

erre ene a

0 1
  C      385.388    -262.207     424.784
  O      384.126    -261.826     425.293
  H      385.591    -261.661     423.858
  H      386.157    -261.950     425.520
  H      385.423    -263.284     424.599
  P      382.828    -262.374     424.525
  C      381.188    -260.428     425.046
  O      381.555    -261.777     425.306
  C      380.447    -259.836     426.244
  O      379.407    -260.767     426.653
  C      381.341    -259.563     427.466
  O      380.914    -258.344     428.077
  C      381.015    -260.719     428.398
  O      381.255    -260.410     429.766
  C      379.546    -260.962     428.071
  N      379.294    -264.166     432.013
  C      379.470    -262.826     431.948
  N      379.469    -262.040     430.852
  C      379.194    -262.757     429.751
  C      378.986    -264.125     429.663
  C      379.062    -264.845     430.869
  N      378.950    -266.217     430.934
  N      378.791    -264.497     428.343
  C      378.899    -263.383     427.652
  N      379.149    -262.306     428.458
  O      382.822    -263.925     424.930
  O      382.829    -262.180     423.047
  H      380.766    -259.596     429.997
  H      383.366    -264.429     424.297
  H      379.642    -262.324     432.898
  H      378.843    -263.303     426.575
  H      378.877    -260.261     428.584
  H      381.629    -261.590     428.129
  H      382.409    -259.507     427.229
  H      379.945    -258.918     425.922
  H      380.531    -260.400     424.172
  H      379.128    -266.654     431.827
  H      378.888    -266.742     430.083
  H      382.091    -259.845     424.826
  P      381.868    -257.064     427.920
  C      381.532    -256.136     430.335
  O      381.368    -255.927     428.934
  O      381.469    -256.481     426.485
  O      383.329    -257.384     427.999
  H      382.244    -256.074     426.052
  H      381.150    -255.291     430.869
  H      382.571    -256.259     430.558
  H      380.997    -257.015     430.629

 6  7  8  9  10  11  12  13  14  15  25  28  32  33  34  35 0
 6-311+G(2d,p)
 ****
 36  39  40 0
 6-311+G(2d,p)
 ****
 1  2  3  4  5  16  17  18  19  20  21  22  23  24 0
 3-21G
 ****
 26  27  29  30  31  37  38  41  42  43  44  45  46  47 0
 3-21G
 ****
 48 0
 3-21G
 ****


