%nproc=1
%NoSave
%Mem=1900MB
#P OB98/GEN NMR

erre ene a

0 1
  C       92.422      66.935    -162.430
  O       91.632      66.256    -161.450
  P       90.806      67.085    -160.352
  C       92.423      66.855    -158.381
  O       91.836      67.755    -159.314
  C       92.876      67.533    -157.082
  O       94.056      68.344    -157.302
  C       91.824      68.437    -156.428
  O       92.038      68.330    -155.016
  C       92.224      69.811    -156.933
  O       91.676      70.864    -156.146
  C       93.753      69.697    -156.913
  N       94.394      70.672    -157.791
  C       94.327      72.012    -157.405
  O       93.698      72.337    -156.395
  N       94.931      72.959    -158.196
  C       95.466      72.609    -159.323
  N       96.028      73.595    -160.074
  C       95.486      71.214    -159.813
  C       94.946      70.308    -158.998
  O       89.685      66.332    -159.711
  O       90.237      68.343    -161.171
  H       91.946      70.720    -155.213
  H       89.391      68.627    -160.777
  H       95.920      70.973    -160.771
  H       94.915      69.260    -159.265
  H       94.139      69.844    -155.895
  H       91.867      69.946    -157.960
  H       90.798      68.171    -156.691
  H       93.166      66.739    -156.384
  H       95.972      74.541    -159.715
  H       93.289      66.380    -158.857
  H       96.368      73.449    -161.014
  H       91.705      66.059    -158.154
  P       91.299      67.223    -154.129
  C       89.572      68.702    -152.956
  O       89.786      67.713    -153.943
  O       91.998      66.868    -152.856
  O       91.159      65.946    -155.089
  H       90.983      65.155    -154.549
  H       88.562      69.102    -153.067
  H       90.293      69.520    -153.064
  H       89.671      68.260    -151.960
  H       92.893      66.217    -163.068
  H       93.170      67.522    -161.940
  H       91.793      67.574    -163.015

 3  4  5  6  7  8  9  10  11  12  13  23  27  28  29  30  32 0
 6-311+G(2d,p)
 ****
 34  35 0
 6-311+G(2d,p)
 ****
 1  2  14  15  16  17  18  19  20  21  22  24  25  26 0
 3-21G
 ****
 31  33  36  37  38  39  40  41  42  43  44  45  46 0
 3-21G
 ****


