%nproc=1
%NoSave
%Mem=1900MB
#P OB98/GEN NMR

erre ene a

0 1
  C      859.404    -897.500    -679.549
  O      858.978    -896.990    -678.271
  P      859.304    -897.860    -676.966
  C      860.698    -896.310    -675.401
  O      860.701    -897.360    -676.364
  C      861.136    -894.980    -676.049
  O      860.226    -894.560    -677.086
  C      861.192    -893.810    -675.068
  O      862.408    -893.820    -674.350
  C      861.160    -892.640    -676.050
  O      862.461    -892.420    -676.599
  C      860.181    -893.130    -677.120
  N      856.921    -889.190    -677.602
  C      858.246    -889.320    -677.870
  N      859.047    -890.390    -677.696
  C      858.348    -891.420    -677.221
  C      857.001    -891.470    -676.894
  C      856.263    -890.290    -677.101
  N      854.917    -890.170    -676.841
  N      856.634    -892.710    -676.410
  C      857.748    -893.410    -676.444
  N      858.817    -892.690    -676.921
  O      859.655    -899.300    -677.571
  O      858.172    -897.930    -675.991
  H      862.417    -891.580    -677.099
  H      859.357    -900.000    -676.962
  H      858.718    -888.420    -678.269
  H      857.840    -894.440    -676.148
  H      860.483    -892.810    -678.122
  H      860.865    -891.700    -675.538
  H      860.309    -893.800    -674.410
  H      862.124    -895.140    -676.504
  H      861.365    -896.550    -674.570
  H      854.458    -889.310    -677.035
  H      854.436    -890.990    -676.495
  H      859.691    -896.230    -674.973
  P      862.331    -894.240    -672.795
  C      864.588    -895.520    -672.897
  O      863.199    -895.570    -672.666
  O      860.821    -894.730    -672.624
  O      862.680    -893.140    -671.840
  H      860.500    -894.570    -671.719
  H      865.057    -896.420    -672.469
  H      865.026    -894.650    -672.405
  H      864.806    -895.470    -673.961
  H      859.118    -896.815    -680.320
  H      858.943    -898.449    -679.726
  H      860.468    -897.615    -679.551

 3  4  5  6  7  8  9  10  11  12  22  25  29  30  31  32 0
 6-311+G(2d,p)
 ****
 33  36  37 0
 6-311+G(2d,p)
 ****
 1  2  13  14  15  16  17  18  19  20  21  23  24  26 0
 3-21G
 ****
 27  28  34  35  38  39  40  41  42  43  44  45  46  47  48 0
 3-21G
 ****


