%nproc=1
%NoSave
%Mem=1900MB
#P OB98/GEN NMR

erre ene a

0 1
  C     -152.075       6.515      20.387
  O     -151.369       7.058      21.483
  H     -153.132       6.777      20.486
  H     -151.983       5.426      20.389
  H     -151.698       6.920      19.444
  P     -149.768       6.963      21.426
  C     -149.418       8.971      19.819
  O     -149.326       7.567      20.006
  C     -148.176       9.489      19.101
  O     -147.022       9.404      19.967
  C     -147.816       8.719      17.836
  O     -148.574       9.157      16.716
  C     -146.351       9.094      17.688
  O     -146.242      10.429      17.153
  C     -145.870       9.066      19.144
  N     -141.991       5.829      18.745
  C     -142.189       7.056      18.141
  N     -141.218       7.477      17.303
  N     -143.244       7.802      18.336
  C     -144.138       7.250      19.190
  C     -144.054       6.045      19.852
  C     -142.878       5.234      19.633
  O     -142.642       4.151      20.160
  N     -145.151       5.830      20.642
  C     -145.907       6.891      20.446
  N     -145.341       7.780      19.567
  O     -149.495       5.392      21.258
  O     -149.051       7.514      22.611
  H     -146.655      10.412      16.270
  H     -148.684       5.160      21.749
  H     -141.165       5.290      18.552
  H     -146.866       7.063      20.914
  H     -145.094       9.813      19.342
  H     -145.813       8.432      17.008
  H     -140.404       6.930      17.071
  H     -147.901       7.636      17.985
  H     -141.325       8.387      16.874
  H     -148.336      10.551      18.874
  H     -149.501       9.459      20.795
  H     -150.314       9.194      19.231
  P     -148.755       8.131      15.493
  C     -150.568       6.409      16.197
  O     -149.183       6.737      16.161
  O     -147.249       7.867      15.019
  O     -149.618       8.621      14.382
  H     -147.240       7.568      14.089
  H     -150.697       5.457      16.669
  H     -150.951       6.367      15.199
  H     -151.097       7.156      16.751

 6  7  8  9  10  11  12  13  14  15  26  29  33  34 0
 6-311+G(2d,p)
 ****
 36  38  39  40  41 0
 6-311+G(2d,p)
 ****
 1  2  3  4  5  16  17  18  19  20  21  22  23  24  25 0
 3-21G
 ****
 27  28  30  31  32  35  37  42  43  44  45  46  47 0
 3-21G
 ****
 48  49 0
 3-21G
 ****


