%nproc=1
%NoSave
%Mem=1900MB
#P OB98/GEN NMR

erre ene a

0 1
  C      571.843     -95.328    -638.949
  O      573.201     -95.705    -639.208
  P      574.276     -94.523    -639.246
  C      575.437     -95.571    -637.165
  O      574.935     -94.392    -637.784
  C      576.807     -95.291    -636.549
  O      577.833     -95.170    -637.559
  C      576.863     -93.982    -635.768
  O      576.210     -94.109    -634.517
  C      578.368     -93.769    -635.677
  O      578.932     -94.588    -634.634
  C      578.849     -94.279    -637.042
  N      582.045     -90.538    -638.475
  C      582.099     -91.441    -637.479
  N      581.210     -92.399    -637.158
  C      580.171     -92.389    -638.013
  C      579.982     -91.535    -639.088
  C      580.973     -90.563    -639.311
  N      580.908     -89.641    -640.325
  N      578.794     -91.827    -639.727
  C      578.270     -92.820    -639.046
  N      579.072     -93.204    -638.006
  O      573.382     -93.202    -639.373
  O      575.251     -94.637    -640.368
  H      579.907     -94.492    -634.681
  H      573.465     -92.827    -640.271
  H      582.982     -91.377    -636.839
  H      577.325     -93.290    -639.261
  H      579.791     -94.845    -636.975
  H      578.647     -92.726    -635.458
  H      576.405     -93.177    -636.347
  H      577.067     -96.130    -635.894
  H      575.515     -96.377    -637.898
  H      581.626     -88.932    -640.371
  H      580.077     -89.601    -640.902
  H      574.723     -95.910    -636.412
  P      575.174     -92.955    -634.101
  C      573.809     -94.754    -632.881
  O      573.797     -93.745    -633.865
  O      574.934     -92.217    -635.497
  O      575.619     -92.087    -632.973
  H      574.776     -92.854    -636.215
  H      572.802     -95.185    -632.805
  H      574.088     -94.332    -631.912
  H      574.514     -95.545    -633.159
  H      571.224     -96.201    -638.949
  H      571.509     -94.654    -639.710
  H      571.782     -94.847    -637.995

 3  4  5  6  7  8  9  10  11  12  22  25  29  30  31  32 0
 6-311+G(2d,p)
 ****
 33  36  37 0
 6-311+G(2d,p)
 ****
 1  2  13  14  15  16  17  18  19  20  21  23  24  26 0
 3-21G
 ****
 27  28  34  35  38  39  40  41  42  43  44  45  46  47  48 0
 3-21G
 ****


