%nproc=1
%NoSave
%Mem=1900MB
#P OB98/GEN NMR

erre ene a

0 1
  C      156.107    -332.721      20.783
  O      155.303    -331.672      20.290
  H      157.157    -332.464      20.614
  H      155.880    -333.642      20.241
  H      155.950    -332.877      21.854
  P      153.786    -331.566      20.787
  C      154.390    -330.221      22.905
  O      153.803    -331.408      22.387
  C      153.688    -329.750      24.180
  O      154.213    -328.470      24.595
  C      152.187    -329.547      23.976
  O      151.396    -330.713      24.100
  C      151.857    -328.542      25.074
  O      151.600    -329.211      26.322
  C      153.136    -327.706      25.165
  N      151.704    -322.811      25.455
  C      151.561    -323.815      26.392
  N      150.904    -323.485      27.526
  N      152.009    -325.031      26.219
  C      152.560    -325.238      25.001
  C      152.744    -324.327      23.985
  C      152.293    -322.966      24.209
  O      152.388    -322.041      23.407
  N      153.345    -324.906      22.893
  C      153.453    -326.176      23.219
  N      153.018    -326.423      24.500
  O      153.222    -333.055      20.594
  O      152.939    -330.571      20.054
  H      152.428    -329.624      26.624
  H      152.257    -333.031      20.464
  H      151.364    -321.887      25.652
  H      153.868    -326.950      22.579
  H      153.407    -327.502      26.211
  H      150.959    -327.962      24.837
  H      150.439    -322.599      27.655
  H      151.996    -329.072      23.007
  H      150.549    -324.245      28.111
  H      153.894    -330.461      24.990
  H      154.301    -329.461      22.128
  H      155.455    -330.376      23.090
  P      149.925    -330.755      23.467
  C      150.607    -332.431      21.594
  O      150.091    -331.160      21.922
  O      149.515    -329.210      23.416
  O      148.933    -331.568      24.229
  H      148.978    -328.978      24.194
  H      150.650    -332.535      20.530
  H      149.972    -333.190      22.001
  H      151.591    -332.533      22.003

 6  7  8  9  10  11  12  13  14  15  26  29  33  34 0
 6-311+G(2d,p)
 ****
 36  38  39  40  41 0
 6-311+G(2d,p)
 ****
 1  2  3  4  5  16  17  18  19  20  21  22  23  24  25 0
 3-21G
 ****
 27  28  30  31  32  35  37  42  43  44  45  46  47 0
 3-21G
 ****
 48  49 0
 3-21G
 ****


