%nproc=1
%NoSave
%Mem=1900MB
#P OB98/GEN NMR

erre ene a

0 1
  C      806.376    -418.070     545.973
  O      807.241    -417.121     546.584
  P      808.392    -416.441     545.690
  C      807.869    -413.851     545.565
  O      807.820    -415.135     544.975
  C      807.831    -412.779     544.461
  O      808.959    -412.939     543.559
  C      806.564    -412.846     543.603
  O      805.507    -412.102     544.169
  C      807.057    -412.286     542.277
  O      807.144    -410.849     542.342
  C      808.466    -412.909     542.193
  N      808.596    -414.276     541.611
  C      808.367    -414.476     540.250
  O      808.065    -413.583     539.458
  N      808.531    -415.750     539.788
  C      809.028    -416.802     540.493
  O      809.206    -417.921     540.026
  C      809.401    -416.513     541.887
  C      809.153    -415.290     542.376
  O      808.590    -417.474     544.481
  O      809.669    -416.177     546.422
  H      806.273    -410.519     542.630
  H      809.488    -417.862     544.506
  H      808.305    -415.932     538.822
  H      809.853    -417.303     542.473
  H      809.415    -415.060     543.406
  H      809.143    -412.262     541.623
  H      806.356    -412.513     541.470
  H      806.272    -413.892     543.441
  H      807.915    -411.796     544.924
  H      808.777    -413.728     546.167
  H      807.025    -413.715     546.243
  P      804.272    -412.852     544.866
  C      804.700    -411.978     547.237
  O      804.727    -413.108     546.390
  O      803.754    -414.065     544.143
  O      803.164    -411.715     545.024
  H      802.524    -411.759     544.273
  H      804.873    -412.304     548.272
  H      803.734    -411.474     547.185
  H      805.508    -411.290     546.949
  H      805.671    -418.427     546.695
  H      806.953    -418.891     545.602
  H      805.853    -417.606     545.163

 3  4  5  6  7  8  9  10  11  12  13  23  28  29  30  31  32 0
 6-311+G(2d,p)
 ****
 33  34 0
 6-311+G(2d,p)
 ****
 1  2  14  15  16  17  18  19  20  21  22  24  25  26  27 0
 3-21G
 ****
 35  36  37  38  39  40  41  42  43  44  45 0
 3-21G
 ****


