%nproc=1
%NoSave
%Mem=1900MB
#P OB98/GEN NMR

erre ene a

0 1
  C      230.799    -898.310     119.957
  O      231.357    -898.120     118.659
  P      232.911    -898.230     118.299
  C      233.646    -895.810     119.022
  O      233.711    -897.200     119.245
  C      233.112    -895.070     120.251
  O      234.087    -895.210     121.345
  C      232.934    -893.560     120.004
  O      231.738    -893.030     120.583
  C      234.259    -892.970     120.507
  O      234.172    -891.590     120.792
  C      234.597    -893.880     121.678
  N      238.158    -894.800     125.203
  C      236.791    -894.730     125.355
  N      236.299    -894.920     126.595
  N      235.967    -894.490     124.358
  C      236.600    -894.260     123.177
  C      237.957    -894.270     122.922
  C      238.839    -894.610     124.010
  O      240.056    -894.680     123.934
  N      238.211    -893.980     121.585
  C      237.032    -893.760     121.070
  N      236.016    -893.940     121.986
  O      233.241    -898.210     116.848
  O      233.336    -899.670     118.887
  H      233.637    -891.490     121.609
  H      234.036    -900.000     118.301
  H      238.763    -895.020     126.000
  H      236.847    -893.510     120.035
  H      234.093    -893.560     122.601
  H      234.993    -893.090     119.707
  H      236.891    -894.980     127.411
  H      232.826    -893.350     118.930
  H      235.337    -894.650     126.729
  H      232.208    -895.520     120.593
  H      232.962    -895.660     118.188
  H      234.633    -895.420     118.716
  P      230.573    -892.190     119.839
  C      231.713    -889.900     120.089
  O      231.215    -890.900     119.185
  O      229.700    -891.610     121.040
  O      229.733    -893.010     118.910
  H      228.771    -891.950     120.980
  H      231.873    -888.980     119.539
  H      232.644    -890.220     120.519
  H      230.972    -889.720     120.872
  H      229.738    -898.178     119.912
  H      231.219    -897.596     120.634
  H      231.021    -899.299     120.299

 3  4  5  6  7  8  9  10  11  12  23  26  30  31 0
 6-311+G(2d,p)
 ****
 33  35  36  37  38 0
 6-311+G(2d,p)
 ****
 1  2  13  14  15  16  17  18  19  20  21  22  24  25 0
 3-21G
 ****
 27  28  29  32  34  39  40  41  42  43  44  45  46  47  48  49 0
 3-21G
 ****


