%nproc=1
%NoSave
%Mem=1900MB
#P OB98/GEN NMR

erre ene a

0 1
  C     -381.651    -633.830     212.900
  O     -382.689    -632.972     212.419
  P     -383.807    -632.527     213.486
  C     -384.007    -630.090     212.616
  O     -384.668    -631.331     212.840
  C     -383.528    -629.960     211.166
  O     -384.591    -630.339     210.239
  C     -383.085    -628.553     210.782
  O     -382.010    -628.666     209.836
  C     -384.298    -627.986     210.079
  O     -383.951    -626.864     209.266
  C     -384.778    -629.230     209.339
  N     -388.068    -626.765     206.310
  C     -386.737    -626.647     206.478
  N     -385.934    -627.324     207.322
  C     -386.645    -628.244     208.014
  C     -388.012    -628.465     207.952
  C     -388.732    -627.677     207.046
  N     -390.101    -627.775     206.894
  N     -388.385    -629.456     208.844
  C     -387.252    -629.811     209.440
  N     -386.178    -629.130     208.937
  O     -382.945    -631.795     214.629
  O     -384.603    -633.656     214.046
  H     -384.777    -626.414     208.999
  H     -382.910    -632.357     215.426
  H     -386.243    -625.901     205.859
  H     -387.164    -630.543     210.211
  H     -384.203    -629.422     208.424
  H     -385.046    -627.659     210.821
  H     -382.760    -627.929     211.634
  H     -382.695    -630.670     211.011
  H     -383.146    -629.996     213.286
  H     -390.555    -627.154     206.249
  H     -390.621    -628.419     207.481
  H     -384.688    -629.272     212.884
  P     -380.544    -628.299     210.368
  C     -378.775    -629.625     208.987
  O     -379.561    -628.437     209.106
  O     -380.145    -629.553     211.296
  O     -380.470    -627.010     211.102
  H     -379.495    -629.275     211.964
  H     -378.770    -629.922     207.931
  H     -379.184    -630.443     209.580
  H     -377.764    -629.406     209.298
  H     -380.974    -634.053     212.102
  H     -382.081    -634.738     213.268
  H     -381.121    -633.340     213.690

 3  4  5  6  7  8  9  10  11  12  22  25  29  30  31  32 0
 6-311+G(2d,p)
 ****
 33  36  37 0
 6-311+G(2d,p)
 ****
 1  2  13  14  15  16  17  18  19  20  21  23  24  26 0
 3-21G
 ****
 27  28  34  35  38  39  40  41  42  43  44  45  46  47  48 0
 3-21G
 ****


