%nproc=1
%NoSave
%Mem=1900MB
#P OB98/GEN NMR

erre ene a

0 1
  C       47.470      39.930    -104.930
  O       47.873      39.504    -106.217
  H       48.043      39.375    -104.183
  H       46.405      39.730    -104.779
  H       47.672      40.997    -104.810
  P       47.120      40.176    -107.464
  C       44.715      40.047    -108.381
  O       45.619      39.603    -107.376
  C       43.802      38.900    -108.821
  O       44.599      37.929    -109.546
  C       43.131      38.174    -107.652
  O       41.799      37.818    -108.023
  C       43.968      36.916    -107.488
  O       43.236      35.851    -106.886
  C       44.407      36.645    -108.928
  N       46.334      31.924    -108.742
  C       45.065      32.379    -108.807
  N       44.639      33.661    -108.871
  C       45.683      34.508    -108.911
  C       47.030      34.191    -108.848
  C       47.347      32.823    -108.754
  N       48.637      32.351    -108.661
  N       47.799      35.339    -108.871
  C       46.930      36.331    -108.958
  N       45.639      35.876    -108.969
  O       47.789      40.016    -108.789
  O       46.944      41.684    -106.961
  H       42.886      36.166    -106.026
  H       46.651      41.720    -106.032
  H       44.287      31.619    -108.802
  H       47.184      37.385    -109.004
  H       43.656      36.088    -109.500
  H       44.835      37.131    -106.852
  H       43.114      38.772    -106.742
  H       43.061      39.292    -109.526
  H       45.268      40.427    -109.247
  H       48.774      31.354    -108.611
  H       49.406      33.006    -108.686
  H       44.120      40.865    -107.962
  P       40.603      38.805    -107.615
  C       39.737      39.935    -105.461
  O       40.536      38.892    -106.015
  O       39.301      38.568    -108.301
  O       41.196      40.243    -108.008
  H       40.475      40.798    -108.363
  H       39.775      39.885    -104.393
  H       38.724      39.820    -105.787
  H       40.112      40.883    -105.787

 6  7  8  9  10  11  12  13  14  15  25  28  32  33  34  35 0
 6-311+G(2d,p)
 ****
 36  39  40 0
 6-311+G(2d,p)
 ****
 1  2  3  4  5  16  17  18  19  20  21  22  23  24 0
 3-21G
 ****
 26  27  29  30  31  37  38  41  42  43  44  45  46  47 0
 3-21G
 ****
 48 0
 3-21G
 ****


