%nproc=1
%NoSave
%Mem=1900MB
#P OB98/GEN NMR

erre ene a

0 1
  C     -646.421    -217.201     589.990
  O     -645.365    -216.757     590.845
  P     -643.861    -216.890     590.315
  C     -643.310    -214.394     591.084
  O     -642.943    -215.764     591.012
  C     -642.096    -213.578     591.548
  O     -641.742    -213.912     592.909
  C     -640.848    -213.806     590.695
  O     -640.830    -212.968     589.541
  C     -639.730    -213.525     591.690
  O     -639.563    -212.102     591.829
  C     -640.304    -214.150     592.964
  N     -640.073    -215.600     593.208
  C     -638.777    -216.087     593.338
  O     -637.765    -215.394     593.283
  N     -638.660    -217.435     593.581
  C     -639.687    -218.303     593.847
  O     -639.531    -219.477     594.129
  C     -641.047    -217.704     593.848
  C     -641.168    -216.409     593.505
  O     -643.942    -216.431     588.794
  O     -643.289    -218.262     590.467
  H     -639.509    -211.741     590.928
  H     -643.735    -217.170     588.204
  H     -637.742    -217.820     593.612
  H     -641.870    -218.329     594.085
  H     -642.158    -215.953     593.506
  H     -639.923    -213.627     593.850
  H     -638.786    -213.907     591.320
  H     -640.783    -214.867     590.403
  H     -642.374    -212.518     591.523
  H     -644.141    -214.274     591.782
  H     -643.656    -214.063     590.094
  P     -641.599    -213.409     588.212
  C     -642.812    -211.228     587.618
  O     -641.727    -212.084     587.324
  O     -642.862    -214.191     588.407
  O     -640.478    -214.258     587.406
  H     -640.608    -215.240     587.583
  H     -642.694    -210.299     587.047
  H     -642.832    -210.989     588.680
  H     -643.761    -211.697     587.330
  H     -647.362    -217.050     590.477
  H     -646.293    -218.242     589.776
  H     -646.399    -216.644     589.077

 3  4  5  6  7  8  9  10  11  12  13  23  28  29  30  31  32 0
 6-311+G(2d,p)
 ****
 33  34 0
 6-311+G(2d,p)
 ****
 1  2  14  15  16  17  18  19  20  21  22  24  25  26  27 0
 3-21G
 ****
 35  36  37  38  39  40  41  42  43  44  45 0
 3-21G
 ****


