%nproc=1
%NoSave
%Mem=1900MB
#P OB98/GEN NMR

erre ene a

0 1
  C     -244.014     -69.291    -376.927
  O     -243.496     -68.201    -377.672
  P     -244.528     -67.169    -378.337
  C     -245.317     -66.768    -380.812
  O     -244.711     -67.629    -379.862
  C     -244.731     -67.023    -382.206
  O     -243.367     -66.508    -382.245
  C     -244.678     -68.500    -382.614
  O     -244.920     -68.558    -384.026
  C     -243.240     -68.886    -382.307
  O     -242.810     -70.023    -383.033
  C     -242.512     -67.585    -382.679
  N     -241.188     -67.467    -382.065
  C     -240.208     -68.374    -382.457
  O     -240.398     -69.283    -383.265
  N     -238.985     -68.226    -381.852
  C     -238.674     -67.323    -380.873
  O     -237.565     -67.246    -380.359
  C     -239.759     -66.421    -380.472
  C     -240.943     -66.524    -381.080
  O     -243.630     -65.851    -378.427
  O     -245.801     -67.016    -377.571
  H     -242.696     -66.039    -378.625
  H     -242.989     -69.863    -383.978
  H     -238.248     -68.853    -382.146
  H     -239.555     -65.702    -379.688
  H     -241.761     -65.871    -380.802
  H     -242.421     -67.507    -383.770
  H     -243.144     -69.106    -381.236
  H     -245.413     -69.109    -382.082
  H     -245.316     -66.445    -382.934
  H     -245.131     -65.727    -380.528
  H     -246.398     -66.929    -380.807
  P     -245.846     -69.751    -384.589
  C     -245.426     -72.224    -385.339
  O     -244.906     -71.031    -384.796
  O     -246.091     -69.238    -386.092
  O     -247.121     -69.966    -383.836
  H     -245.272     -68.962    -386.531
  H     -244.593     -72.835    -385.710
  H     -246.106     -72.025    -386.171
  H     -245.952     -72.786    -384.559
  H     -243.205     -69.883    -376.551
  H     -244.633     -69.893    -377.559
  H     -244.594     -68.920    -376.108

 3  4  5  6  7  8  9  10  11  12  13  24  28  29  30  31  32 0
 6-311+G(2d,p)
 ****
 33  34 0
 6-311+G(2d,p)
 ****
 1  2  14  15  16  17  18  19  20  21  22  23  25  26  27 0
 3-21G
 ****
 35  36  37  38  39  40  41  42  43  44  45 0
 3-21G
 ****


