%nproc=1
%NoSave
%Mem=1900MB
#P OB98/GEN NMR

erre ene a

0 1
  C     -251.074     323.395     285.598
  O     -251.372     324.295     286.639
  P     -252.786     324.374     287.371
  C     -253.127     326.755     286.344
  O     -253.214     325.921     287.488
  C     -253.086     328.238     286.746
  O     -253.025     329.043     285.541
  C     -254.360     328.651     287.503
  O     -254.122     329.506     288.613
  C     -255.255     329.181     286.393
  O     -256.294     330.031     286.854
  C     -254.238     329.830     285.451
  N     -256.509     332.632     281.873
  C     -256.074     333.012     283.128
  N     -256.447     334.242     283.543
  N     -255.359     332.240     283.912
  C     -255.156     330.998     283.407
  C     -255.538     330.514     282.181
  C     -256.298     331.388     281.311
  O     -256.800     331.054     280.237
  N     -255.217     329.187     282.033
  C     -254.672     328.861     283.191
  N     -254.641     329.921     284.065
  O     -252.974     323.502     288.567
  O     -253.783     323.839     286.215
  H     -256.995     330.029     286.183
  H     -254.503     323.349     286.661
  H     -257.128     333.244     281.350
  H     -254.310     327.872     283.450
  H     -253.994     330.848     285.767
  H     -255.735     328.323     285.912
  H     -257.119     334.798     283.028
  H     -254.841     327.770     287.955
  H     -256.360     334.444     284.536
  H     -252.175     328.430     287.322
  H     -254.018     326.550     285.742
  H     -252.245     326.492     285.738
  P     -254.233     329.172     290.170
  C     -256.701     329.871     290.150
  O     -255.445     330.011     290.791
  O     -252.950     329.862     290.836
  O     -254.258     327.711     290.499
  H     -252.584     329.282     291.529
  H     -257.356     330.679     290.480
  H     -257.148     328.913     290.430
  H     -256.588     329.925     289.062
  H     -250.063     323.541     285.278
  H     -251.737     323.568     284.776
  H     -251.195     322.391     285.949

 3  4  5  6  7  8  9  10  11  12  23  26  30  31 0
 6-311+G(2d,p)
 ****
 33  35  36  37  38 0
 6-311+G(2d,p)
 ****
 1  2  13  14  15  16  17  18  19  20  21  22  24  25 0
 3-21G
 ****
 27  28  29  32  34  39  40  41  42  43  44  45  46  47  48  49 0
 3-21G
 ****


