%nproc=1
%NoSave
%Mem=1900MB
#P OB98/GEN NMR

erre ene a

0 1
  C     1015.822     468.151     469.498
  O     1015.961     468.865     470.703
  H     1015.489     467.138     469.726
  H     1016.779     468.098     468.972
  H     1015.072     468.614     468.847
  P     1016.234     470.444     470.567
  C     1013.752     471.191     470.774
  O     1015.042     471.182     471.358
  C     1012.704     470.707     471.795
  O     1012.825     469.270     471.977
  C     1012.841     471.338     473.174
  O     1012.230     472.591     473.245
  C     1012.088     470.302     474.008
  O     1010.654     470.509     473.839
  C     1012.524     468.998     473.376
  N     1014.504     467.120     477.661
  C     1013.242     467.648     477.421
  N     1012.407     467.719     478.473
  N     1012.863     468.104     476.237
  C     1013.806     467.984     475.289
  C     1015.085     467.462     475.408
  C     1015.497     466.972     476.694
  O     1016.572     466.474     476.962
  N     1015.751     467.509     474.217
  C     1014.887     468.069     473.365
  N     1013.704     468.396     473.988
  O     1015.902     470.755     469.025
  O     1017.618     470.890     470.917
  H     1010.218     470.074     474.586
  H     1016.513     471.437     468.704
  H     1014.754     466.801     478.572
  H     1015.086     468.259     472.331
  H     1011.731     468.234     473.381
  H     1012.276     470.400     475.074
  H     1012.679     467.435     479.424
  H     1013.906     471.350     473.505
  H     1011.471     468.095     478.314
  H     1011.708     470.909     471.370
  H     1013.748     470.531     469.904
  H     1013.517     472.210     470.444
  P     1012.369     473.416     474.647
  C     1014.287     474.940     473.744
  O     1012.939     474.873     474.235
  O     1013.608     472.702     475.345
  O     1011.148     473.415     475.487
  H     1013.559     472.845     476.318
  H     1014.532     475.955     473.511
  H     1014.376     474.341     472.862
  H     1014.958     474.574     474.493

 6  7  8  9  10  11  12  13  14  15  26  29  33  34 0
 6-311+G(2d,p)
 ****
 36  38  39  40  41 0
 6-311+G(2d,p)
 ****
 1  2  3  4  5  16  17  18  19  20  21  22  23  24  25 0
 3-21G
 ****
 27  28  30  31  32  35  37  42  43  44  45  46  47 0
 3-21G
 ****
 48  49 0
 3-21G
 ****


