%nproc=1
%NoSave
%Mem=1900MB
#P OB98/GEN NMR

erre ene a

0 1
  C      669.555    -452.431    -831.207
  O      669.583    -451.956    -829.869
  P      668.458    -452.519    -828.863
  C      666.237    -451.980    -830.178
  O      667.190    -452.954    -829.758
  C      664.992    -452.667    -830.761
  O      664.301    -453.376    -829.711
  C      663.950    -451.715    -831.361
  O      663.094    -452.464    -832.252
  C      663.176    -451.291    -830.137
  O      661.907    -450.735    -830.474
  C      663.127    -452.599    -829.323
  N      663.150    -452.391    -827.843
  C      662.035    -452.752    -827.111
  O      661.034    -453.281    -827.595
  N      662.078    -452.499    -825.749
  C      663.133    -451.942    -825.099
  O      663.080    -451.633    -823.905
  C      664.346    -451.670    -825.897
  C      664.280    -451.894    -827.207
  O      667.962    -451.212    -828.093
  O      668.951    -453.577    -827.934
  H      662.100    -449.890    -830.958
  H      668.308    -451.200    -827.181
  H      661.254    -452.713    -825.220
  H      665.212    -451.296    -825.380
  H      665.171    -451.702    -827.815
  H      662.224    -453.191    -829.542
  H      663.735    -450.527    -829.580
  H      664.369    -450.854    -831.895
  H      665.305    -453.403    -831.522
  H      666.695    -451.308    -830.897
  H      665.938    -451.367    -829.307
  P      663.434    -452.465    -833.820
  C      662.601    -450.072    -834.253
  O      663.726    -450.926    -834.220
  O      662.481    -453.193    -834.696
  O      664.909    -453.108    -833.866
  H      665.102    -453.453    -834.758
  H      662.932    -449.057    -834.025
  H      661.827    -450.371    -833.541
  H      662.180    -450.080    -835.277
  H      670.351    -451.980    -831.762
  H      668.618    -452.177    -831.656
  H      669.675    -453.494    -831.211

 3  4  5  6  7  8  9  10  11  12  13  23  28  29  30  31  32 0
 6-311+G(2d,p)
 ****
 33  34 0
 6-311+G(2d,p)
 ****
 1  2  14  15  16  17  18  19  20  21  22  24  25  26  27 0
 3-21G
 ****
 35  36  37  38  39  40  41  42  43  44  45 0
 3-21G
 ****


