%nproc=1
%NoSave
%Mem=1900MB
#P OB98/GEN NMR

erre ene a

0 1
  C      -68.126     184.461    -232.902
  O      -68.048     183.146    -232.387
  P      -68.743     181.931    -233.171
  C      -70.457     181.921    -231.254
  O      -70.256     181.803    -232.660
  C      -71.604     182.885    -230.958
  O      -71.463     184.105    -231.717
  C      -72.982     182.346    -231.333
  O      -73.420     181.345    -230.436
  C      -73.804     183.625    -231.325
  O      -74.183     183.984    -229.987
  C      -72.794     184.649    -231.893
  N      -73.058     184.976    -233.284
  C      -74.321     185.514    -233.564
  O      -75.165     185.616    -232.675
  N      -74.591     185.917    -234.850
  C      -73.729     185.689    -235.790
  N      -74.029     186.164    -237.030
  C      -72.458     184.975    -235.565
  C      -72.180     184.671    -234.298
  O      -67.971     180.653    -233.169
  O      -68.920     182.484    -234.663
  H      -68.565     181.823    -235.290
  H      -74.669     184.831    -230.056
  H      -71.803     184.749    -236.399
  H      -71.253     184.167    -234.033
  H      -72.821     185.571    -231.299
  H      -74.727     183.530    -231.909
  H      -72.949     181.938    -232.351
  H      -71.570     183.136    -229.891
  H      -74.904     186.663    -237.143
  H      -69.536     182.295    -230.800
  H      -73.314     186.328    -237.736
  H      -70.666     180.932    -230.834
  P      -73.613     179.867    -231.033
  C      -76.172     180.019    -230.677
  O      -75.115     179.764    -231.578
  O      -73.616     178.939    -229.727
  O      -72.557     179.442    -232.000
  H      -73.170     178.091    -229.927
  H      -77.076     180.255    -231.251
  H      -75.948     180.867    -230.017
  H      -76.363     179.125    -230.070
  H      -67.608     185.131    -232.248
  H      -69.152     184.755    -232.974
  H      -67.677     184.491    -233.873

 3  4  5  6  7  8  9  10  11  12  13  24  27  28  29  30  32 0
 6-311+G(2d,p)
 ****
 34  35 0
 6-311+G(2d,p)
 ****
 1  2  14  15  16  17  18  19  20  21  22  23  25  26 0
 3-21G
 ****
 31  33  36  37  38  39  40  41  42  43  44  45  46 0
 3-21G
 ****


