%nproc=1
%NoSave
%Mem=1900MB
#P OB98/GEN NMR

erre ene a

0 1
  C     1351.177     114.768     706.288
  O     1351.494     113.373     706.150
  P     1352.339     112.720     707.346
  C     1354.708     113.225     706.435
  O     1353.750     113.472     707.445
  C     1355.976     112.536     706.990
  O     1356.867     112.164     705.915
  C     1356.788     113.452     707.935
  O     1357.377     112.631     708.943
  C     1357.884     113.996     707.040
  O     1359.005     114.498     707.817
  C     1358.172     112.778     706.181
  N     1362.412     114.832     704.168
  C     1362.002     114.608     705.454
  N     1360.855     114.074     705.911
  C     1360.067     113.700     704.873
  C     1360.327     113.865     703.512
  C     1361.557     114.463     703.193
  N     1361.934     114.693     701.875
  N     1359.267     113.397     702.757
  C     1358.389     112.964     703.645
  N     1358.852     113.116     704.923
  O     1352.741     111.270     706.777
  O     1351.616     112.595     708.652
  H     1359.661     114.826     707.170
  H     1352.195     110.584     707.224
  H     1362.734     114.921     706.223
  H     1357.405     112.565     703.419
  H     1358.810     112.031     706.696
  H     1357.484     114.814     706.430
  H     1356.208     114.243     708.420
  H     1355.685     111.643     707.507
  H     1355.013     114.178     705.946
  H     1362.818     115.148     701.721
  H     1361.309     114.486     701.137
  H     1354.258     112.611     705.619
  P     1356.943     112.888     710.468
  C     1358.985     114.371     711.068
  O     1357.598     114.295     710.855
  O     1357.801     111.848     711.297
  O     1355.479     112.740     710.721
  H     1357.356     111.652     712.132
  H     1359.368     115.291     710.615
  H     1359.530     113.523     710.612
  H     1359.195     114.397     712.146
  H     1350.615     115.092     705.437
  H     1352.082     115.335     706.355
  H     1350.597     114.916     707.175

 3  4  5  6  7  8  9  10  11  12  22  25  29  30  31  32 0
 6-311+G(2d,p)
 ****
 33  36  37 0
 6-311+G(2d,p)
 ****
 1  2  13  14  15  16  17  18  19  20  21  23  24  26 0
 3-21G
 ****
 27  28  34  35  38  39  40  41  42  43  44  45  46  47  48 0
 3-21G
 ****


