%nproc=1
%NoSave
%Mem=1900MB
#P OB98/GEN NMR

erre ene a

0 1
  C     -347.382     274.143     425.365
  O     -348.355     275.075     424.880
  P     -348.333     276.539     425.543
  C     -350.772     276.321     426.438
  O     -349.859     277.061     425.637
  C     -352.173     276.401     425.830
  O     -352.328     275.515     424.702
  C     -353.272     275.993     426.806
  O     -353.513     277.014     427.766
  C     -354.433     275.739     425.833
  O     -355.038     276.991     425.450
  C     -353.713     275.110     424.634
  N     -356.558     271.112     423.203
  C     -356.755     272.439     423.073
  N     -355.951     273.443     423.482
  C     -354.835     272.951     424.074
  C     -354.497     271.625     424.260
  C     -355.428     270.675     423.799
  N     -355.230     269.307     423.928
  N     -353.282     271.512     424.891
  C     -352.898     272.755     425.105
  N     -353.800     273.662     424.607
  O     -347.691     277.454     424.399
  O     -347.564     276.609     426.821
  H     -355.778     276.782     424.836
  H     -346.791     277.714     424.657
  H     -357.682     272.740     422.590
  H     -351.981     273.048     425.601
  H     -354.116     275.475     423.686
  H     -355.221     275.114     426.276
  H     -353.006     275.059     427.316
  H     -352.347     277.434     425.488
  H     -350.789     276.709     427.457
  H     -355.983     268.697     423.641
  H     -354.435     268.976     424.450
  H     -350.425     275.286     426.484
  P     -353.738     276.571     429.294
  C     -355.397     278.446     429.853
  O     -354.080     277.954     430.047
  O     -352.240     276.276     429.764
  O     -354.710     275.449     429.487
  H     -351.617     276.981     429.472
  H     -355.505     279.365     430.444
  H     -356.133     277.718     430.198
  H     -355.564     278.675     428.800
  H     -347.495     273.211     424.852
  H     -347.525     273.992     426.415
  H     -346.400     274.530     425.191

 3  4  5  6  7  8  9  10  11  12  22  25  29  30  31  32 0
 6-311+G(2d,p)
 ****
 33  36  37 0
 6-311+G(2d,p)
 ****
 1  2  13  14  15  16  17  18  19  20  21  23  24  26 0
 3-21G
 ****
 27  28  34  35  38  39  40  41  42  43  44  45  46  47  48 0
 3-21G
 ****


