%nproc=1
%NoSave
%Mem=1900MB
#P OB98/GEN NMR

erre ene a

0 1
  C      348.873     576.868    -171.341
  O      348.347     576.290    -170.158
  P      348.447     577.159    -168.803
  C      349.273     575.110    -167.452
  O      348.293     576.125    -167.588
  C      348.637     573.774    -167.035
  O      348.059     573.930    -165.708
  C      347.535     573.289    -167.980
  O      347.625     571.863    -168.058
  C      346.254     573.658    -167.249
  O      345.164     572.832    -167.659
  C      346.683     573.500    -165.787
  N      345.842     574.253    -164.873
  C      344.780     573.564    -164.267
  O      344.550     572.397    -164.571
  N      343.979     574.237    -163.367
  C      344.145     575.506    -163.190
  N      343.333     576.126    -162.285
  C      345.180     576.300    -163.900
  C      345.986     575.610    -164.703
  O      347.057     577.956    -168.797
  O      349.624     578.073    -168.743
  H      344.417     572.962    -167.027
  H      347.155     578.832    -168.376
  H      345.252     577.364    -163.731
  H      346.790     576.109    -165.255
  H      346.654     572.429    -165.488
  H      345.998     574.701    -167.458
  H      347.610     573.711    -168.989
  H      349.434     573.026    -166.954
  H      342.629     575.564    -161.827
  H      349.984     575.394    -166.670
  H      343.396     577.115    -162.078
  H      349.824     574.990    -168.394
  P      347.891     571.209    -169.498
  C      346.130     569.396    -169.006
  O      347.479     569.663    -169.334
  O      349.489     571.114    -169.522
  O      347.378     571.919    -170.706
  H      349.788     570.784    -170.391
  H      345.956     568.319    -169.065
  H      345.453     569.902    -169.705
  H      345.919     569.729    -167.980
  H      348.742     576.190    -172.158
  H      349.916     577.068    -171.207
  H      348.358     577.782    -171.550

 3  4  5  6  7  8  9  10  11  12  13  21  23  27  28  29  30  32 0
 6-311+G(2d,p)
 ****
 34  35 0
 6-311+G(2d,p)
 ****
 1  2  14  15  16  17  18  19  20  22  24  25  26 0
 3-21G
 ****
 31  33  36  37  38  39  40  41  42  43  44  45  46 0
 3-21G
 ****


