%nproc=1
%NoSave
%Mem=1900MB
#P OB98/GEN NMR

erre ene a

0 1
  C     -420.749     368.828    -365.020
  O     -419.657     369.714    -364.896
  H     -420.831     368.514    -366.070
  H     -421.680     369.320    -364.726
  H     -420.589     367.942    -364.400
  P     -419.435     370.373    -363.447
  C     -420.886     372.051    -362.082
  O     -420.621     371.447    -363.334
  C     -422.284     372.674    -362.089
  O     -422.349     373.764    -363.034
  C     -423.392     371.710    -362.509
  O     -423.786     370.831    -361.467
  C     -424.490     372.696    -362.860
  O     -425.081     373.213    -361.654
  C     -423.683     373.789    -363.596
  N     -423.640     373.589    -365.050
  C     -424.785     373.914    -365.773
  O     -425.788     374.338    -365.198
  N     -424.793     373.722    -367.138
  C     -423.739     373.249    -367.731
  N     -423.809     373.065    -369.073
  C     -422.497     372.910    -367.011
  C     -422.514     373.102    -365.698
  O     -418.144     371.301    -363.649
  O     -419.327     369.411    -362.313
  H     -425.758     373.865    -361.930
  H     -417.993     371.851    -362.840
  H     -421.640     372.514    -367.545
  H     -421.637     372.867    -365.093
  H     -424.110     374.781    -363.407
  H     -425.296     372.249    -363.447
  H     -423.119     371.153    -363.411
  H     -422.476     373.093    -361.094
  H     -424.689     373.249    -369.539
  H     -420.136     372.826    -361.900
  H     -423.111     372.541    -369.589
  H     -420.829     371.306    -361.284
  P     -424.408     369.414    -361.886
  C     -426.674     368.591    -362.868
  O     -425.883     369.701    -362.456
  O     -424.709     368.716    -360.473
  O     -423.534     368.566    -362.754
  H     -424.500     367.763    -360.504
  H     -427.622     368.940    -363.221
  H     -426.823     367.932    -362.039
  H     -426.172     368.067    -363.654

 6  7  8  9  10  11  12  13  14  15  16  26  30  31  32  33  35 0
 6-311+G(2d,p)
 ****
 37  38 0
 6-311+G(2d,p)
 ****
 1  2  3  4  5  17  18  19  20  21  22  23  24  25 0
 3-21G
 ****
 27  28  29  34  36  39  40  41  42  43  44  45  46 0
 3-21G
 ****


