%nproc=1
%NoSave
%Mem=1900MB
#P OB98/GEN NMR

erre ene a

0 1
  C     -312.894     663.850    -712.991
  O     -311.846     664.360    -712.188
  H     -313.815     664.392    -712.751
  H     -313.049     662.790    -712.781
  H     -312.665     663.995    -714.051
  P     -310.398     663.711    -712.409
  C     -309.446     661.471    -711.520
  O     -310.592     662.171    -712.000
  C     -309.877     660.258    -710.694
  O     -310.360     660.660    -709.401
  C     -311.004     659.441    -711.312
  O     -310.509     658.568    -712.322
  C     -311.512     658.677    -710.101
  O     -310.651     657.553    -709.842
  C     -311.375     659.716    -708.972
  N     -313.481     663.179    -705.814
  C     -312.288     662.540    -705.780
  N     -311.809     661.603    -706.630
  C     -312.704     661.330    -707.602
  C     -313.968     661.903    -707.754
  C     -314.342     662.875    -706.819
  N     -315.552     663.538    -706.856
  N     -314.603     661.379    -708.859
  C     -313.727     660.543    -709.386
  N     -312.582     660.455    -708.642
  O     -309.257     664.429    -711.766
  O     -310.340     663.635    -714.017
  H     -311.066     657.012    -709.141
  H     -311.206     663.389    -714.375
  H     -311.626     662.829    -704.966
  H     -313.871     659.994    -710.320
  H     -311.019     659.254    -708.033
  H     -312.517     658.276    -710.250
  H     -311.805     660.088    -711.691
  H     -308.992     659.621    -710.536
  H     -308.827     662.132    -710.907
  H     -315.812     664.082    -706.055
  H     -316.230     663.219    -707.524
  H     -308.865     661.151    -712.388
  P     -311.495     657.970    -713.443
  C     -312.733     655.743    -713.791
  O     -312.076     656.594    -712.848
  O     -310.893     657.852    -714.803
  O     -312.755     658.941    -713.432
  H     -313.093     659.079    -714.348
  H     -313.079     654.861    -713.294
  H     -312.046     655.470    -714.565
  H     -313.565     656.261    -714.220

 6  7  8  9  10  11  12  13  14  15  25  28  32  33  34  35 0
 6-311+G(2d,p)
 ****
 36  39  40 0
 6-311+G(2d,p)
 ****
 1  2  3  4  5  16  17  18  19  20  21  22  23  24 0
 3-21G
 ****
 26  27  29  30  31  37  38  41  42  43  44  45  46  47 0
 3-21G
 ****
 48 0
 3-21G
 ****


