%nproc=1
%NoSave
%Mem=1900MB
#P OB98/GEN NMR

erre ene a

0 1
  C       79.041     -25.822     147.023
  O       79.662     -24.541     147.178
  P       79.646     -23.908     148.658
  C       81.138     -24.305     150.758
  O       81.062     -24.247     149.340
  C       82.358     -25.107     151.203
  O       82.373     -26.412     150.585
  C       83.696     -24.479     150.827
  O       84.055     -23.439     151.728
  C       84.631     -25.667     150.972
  O       85.007     -25.834     152.350
  C       83.754     -26.843     150.507
  N       86.312     -30.096     147.574
  C       86.289     -29.975     148.951
  N       87.034     -30.864     149.645
  N       85.598     -29.066     149.590
  C       84.880     -28.263     148.765
  C       84.819     -28.280     147.389
  C       85.610     -29.275     146.695
  O       85.694     -29.407     145.477
  N       83.970     -27.314     146.909
  C       83.494     -26.731     147.994
  N       84.025     -27.259     149.144
  O       78.624     -24.857     149.444
  O       79.230     -22.478     148.700
  H       85.626     -26.591     152.390
  H       78.212     -24.366     150.178
  H       86.864     -30.811     147.135
  H       82.766     -25.930     147.999
  H       83.864     -27.715     151.163
  H       85.563     -25.546     150.403
  H       87.529     -31.635     149.222
  H       83.686     -24.133     149.783
  H       86.999     -30.811     150.657
  H       82.301     -25.241     152.292
  H       80.233     -24.767     151.158
  H       81.174     -23.283     151.155
  P       83.566     -21.953     151.366
  C       81.267     -20.754     151.510
  O       82.066     -21.846     151.922
  O       83.388     -22.002     149.775
  O       84.508     -20.872     151.791
  H       83.534     -21.121     149.392
  H       81.380     -20.561     150.441
  H       81.549     -19.860     152.078
  H       80.218     -20.989     151.716
  H       79.116     -26.134     146.002
  H       78.010     -25.754     147.300
  H       79.533     -26.535     147.651

 3  4  5  6  7  8  9  10  11  12  23  26  30  31  33  0
 6-311+G(2d,p)
 ****
 35  36  37  38 0
 6-311+G(2d,p)
 ****
 1  2  13  14  15  16  17  18  19  20  21  22  24  25  27  28  29 0
 3-21G
 ****
 32  34  39  40  41  42  43  44  45  46  47  48  49 0
 3-21G
 ****


