%nproc=1
%NoSave
%Mem=1900MB
#P OB98/GEN NMR

erre ene a

0 1
  C        1.265    -226.956      90.901
  O        0.639    -228.215      90.615
  P       -0.467    -228.411      89.468
  C       -2.334    -228.320      91.260
  O       -1.860    -227.825      90.013
  C       -3.863    -228.378      91.275
  O       -4.344    -229.219      90.200
  C       -4.478    -228.987      92.526
  O       -4.401    -228.121      93.643
  C       -5.901    -229.274      92.050
  O       -6.734    -228.113      92.165
  C       -5.685    -229.622      90.565
  N       -5.906    -231.028      90.273
  C       -7.128    -231.362      89.682
  O       -7.989    -230.502      89.505
  N       -7.347    -232.669      89.322
  C       -6.471    -233.577      89.623
  N       -6.734    -234.850      89.225
  C       -5.232    -233.286      90.368
  C       -5.014    -232.005      90.656
  O       -0.565    -229.810      88.955
  O       -0.053    -227.397      88.302
  H       -0.387    -227.727      87.448
  H       -7.589    -228.336      91.747
  H       -4.549    -234.079      90.636
  H       -4.119    -231.701      91.190
  H       -6.348    -229.017      89.936
  H       -6.376    -230.071      92.631
  H       -3.973    -229.934      92.753
  H       -4.244    -227.360      91.119
  H       -7.588    -235.013      88.707
  H       -1.998    -227.641      92.052
  H       -6.108    -235.626      89.388
  H       -1.902    -229.308      91.443
  P       -3.260    -228.431      94.727
  C       -5.039    -228.887      96.560
  O       -3.904    -229.361      95.861
  O       -3.044    -227.024      95.461
  O       -1.981    -228.942      94.149
  H       -2.097    -226.893      95.647
  H       -5.622    -229.747      96.901
  H       -5.671    -228.258      95.928
  H       -4.713    -228.315      97.431
  H        1.963    -227.079      91.703
  H        0.519    -226.243      91.183
  H        1.780    -226.608      90.030

 3  4  5  6  7  8  9  10  11  12  13  24  27  28  29  30  32 0
 6-311+G(2d,p)
 ****
 34  35 0
 6-311+G(2d,p)
 ****
 1  2  14  15  16  17  18  19  20  21  22  23  25  26 0
 3-21G
 ****
 31  33  36  37  38  39  40  41  42  43  44  45  46 0
 3-21G
 ****


