%nproc=1
%NoSave
%Mem=1900MB
#P OB98/GEN NMR

erre ene a

0 1
  C       25.730     556.373    -934.861
  O       25.779     556.558    -936.257
  H       26.700     556.004    -934.518
  H       24.958     555.629    -934.615
  H       25.514     557.310    -934.340
  P       24.612     557.396    -936.974
  C       26.180     559.240    -937.893
  O       25.282     558.178    -938.201
  C       27.005     559.633    -939.129
  O       28.005     558.595    -939.384
  C       26.128     559.715    -940.391
  O       26.660     560.637    -941.343
  C       26.224     558.302    -940.957
  O       25.937     558.237    -942.355
  C       27.670     557.927    -940.606
  N       28.777     553.508    -942.908
  C       28.468     554.736    -943.466
  N       28.462     554.789    -944.825
  N       28.175     555.801    -942.770
  C       28.149     555.582    -941.426
  C       28.408     554.404    -940.760
  C       28.767     553.237    -941.542
  O       29.018     552.134    -941.098
  N       28.271     554.563    -939.397
  C       27.928     555.828    -939.250
  N       27.860     556.497    -940.448
  O       24.310     558.586    -935.937
  O       23.369     556.620    -937.299
  H       26.043     557.311    -942.626
  H       23.419     558.940    -936.078
  H       29.024     552.731    -943.490
  H       27.720     556.312    -938.298
  H       28.350     558.281    -941.379
  H       25.488     557.677    -940.453
  H       28.492     553.955    -945.385
  H       25.098     559.975    -940.164
  H       27.950     555.579    -945.240
  H       27.554     560.563    -938.933
  H       26.830     558.877    -937.092
  H       25.633     560.098    -937.505
  P       25.753     561.028    -942.602
  C       25.500     563.640    -942.220
  O       25.990     562.562    -942.991
  O       24.259     561.019    -942.019
  O       25.902     560.109    -943.790
  H       23.727     560.307    -942.449
  H       25.784     564.564    -942.678
  H       25.912     563.590    -941.234
  H       24.433     563.582    -942.164

 6  7  8  9  10  11  12  13  14  15  26  29  33  34 0
 6-311+G(2d,p)
 ****
 36  38  39  40  41 0
 6-311+G(2d,p)
 ****
 1  2  3  4  5  16  17  18  19  20  21  22  23  24  25 0
 3-21G
 ****
 27  28  30  31  32  35  37  42  43  44  45  46  47 0
 3-21G
 ****
 48  49 0
 3-21G
 ****


