%nproc=1
%NoSave
%Mem=1900MB
#P OB98/GEN NMR

erre ene a

0 1
  C     -870.253    -463.327      11.974
  O     -870.870    -463.044      10.737
  H     -870.224    -462.416      12.574
  H     -869.228    -463.677      11.820
  H     -870.827    -464.086      12.517
  P     -870.925    -464.224       9.659
  C     -868.929    -463.288       8.274
  O     -869.448    -464.365       9.046
  C     -867.497    -462.994       8.711
  O     -867.489    -462.505      10.070
  C     -866.585    -464.207       8.701
  O     -866.123    -464.539       7.406
  C     -865.459    -463.731       9.608
  O     -864.487    -462.954       8.894
  C     -866.205    -462.864      10.641
  N     -866.355    -463.549      11.925
  C     -865.742    -462.918      13.007
  O     -865.123    -461.864      12.919
  N     -865.841    -463.580      14.204
  C     -866.422    -464.794      14.411
  O     -866.415    -465.351      15.504
  C     -867.036    -465.416      13.226
  C     -866.965    -464.771      12.052
  O     -871.775    -463.591       8.460
  O     -871.522    -465.501      10.157
  H     -872.671    -463.978       8.453
  H     -864.992    -462.307       8.368
  H     -865.398    -463.134      15.001
  H     -867.512    -466.384      13.355
  H     -867.396    -465.220      11.158
  H     -865.666    -461.925      10.806
  H     -864.941    -464.570      10.053
  H     -867.090    -465.060       9.182
  H     -867.087    -462.203       8.058
  H     -869.538    -462.392       8.438
  H     -868.974    -463.554       7.215
  P     -866.812    -465.785       6.664
  C     -864.473    -466.624       5.804
  O     -865.674    -466.900       6.511
  O     -867.003    -465.190       5.192
  O     -868.075    -466.233       7.331
  H     -866.334    -464.507       4.990
  H     -863.846    -467.491       5.814
  H     -863.963    -465.809       6.273
  H     -864.706    -466.365       4.792

 6  7  8  9  10  11  12  13  14  15  16  27  31  32  33  34  35 0
 6-311+G(2d,p)
 ****
 36  37 0
 6-311+G(2d,p)
 ****
 1  2  3  4  5  17  18  19  20  21  22  23  24  25 0
 3-21G
 ****
 26  28  29  30  38  39  40  41  42  43  44  45 0
 3-21G
 ****


