%nproc=1
%NoSave
%Mem=1900MB
#P OB98/GEN NMR

erre ene a

0 1
  C     -174.141    -896.710     297.156
  O     -173.764    -896.830     295.797
  P     -173.292    -895.630     294.861
  C     -171.757    -897.250     293.487
  O     -171.891    -896.020     294.204
  C     -170.594    -897.220     292.468
  O     -170.906    -896.290     291.406
  C     -169.307    -896.750     293.104
  O     -168.495    -897.650     293.854
  C     -168.575    -896.000     292.015
  O     -167.630    -896.830     291.334
  C     -169.711    -895.580     291.067
  N     -169.879    -891.170     288.454
  C     -169.511    -892.440     288.012
  N     -169.087    -892.540     286.741
  N     -169.553    -893.500     288.771
  C     -169.899    -893.240     290.062
  C     -170.265    -892.030     290.612
  C     -170.299    -890.880     289.756
  O     -170.611    -889.740     290.090
  N     -170.538    -892.150     291.959
  C     -170.320    -893.440     292.211
  N     -169.937    -894.140     291.076
  O     -173.391    -894.260     295.469
  O     -174.331    -895.690     293.611
  H     -168.121    -897.550     290.920
  H     -174.449    -894.750     293.321
  H     -169.873    -890.390     287.823
  H     -170.436    -893.910     293.189
  H     -169.465    -895.840     290.032
  H     -168.001    -895.150     292.426
  H     -168.933    -891.750     286.145
  H     -169.593    -895.960     293.858
  H     -168.615    -893.390     286.468
  H     -170.500    -898.220     291.982
  H     -172.710    -897.440     292.982
  H     -171.614    -898.080     294.197
  P     -168.025    -897.480     295.393
  C     -169.971    -899.080     295.812
  O     -169.214    -898.010     296.316
  O     -168.039    -895.890     295.618
  O     -166.669    -898.050     295.687
  H     -167.525    -895.670     296.429
  H     -170.906    -899.130     296.386
  H     -169.422    -900.000     295.936
  H     -170.213    -898.920     294.760
  H     -174.412    -897.672     297.537
  H     -174.976    -896.046     297.237
  H     -173.320    -896.321     297.721

 3  4  5  6  7  8  9  10  11  12  23  26  30  31 0
 6-311+G(2d,p)
 ****
 33  35  36  37  38 0
 6-311+G(2d,p)
 ****
 1  2  13  14  15  16  17  18  19  20  21  22  24  25 0
 3-21G
 ****
 27  28  29  32  34  39  40  41  42  43  44  45  46  47  48  49 0
 3-21G
 ****


