%nproc=1
%NoSave
%Mem=1900MB
#P OB98/GEN NMR

erre ene a

0 1
  C       -5.546     104.592    -135.537
  O       -5.015     103.449    -136.189
  P       -3.992     102.523    -135.349
  C       -2.144     103.284    -133.694
  O       -2.767     103.493    -134.959
  C       -0.640     103.524    -133.797
  O       -0.401     104.863    -134.301
  C        0.113     103.452    -132.469
  O        0.387     102.118    -132.094
  C        1.396     104.212    -132.809
  O        2.311     103.332    -133.489
  C        0.872     105.304    -133.772
  N        3.194     109.228    -131.566
  C        3.733     108.072    -132.115
  N        5.073     107.962    -132.079
  N        3.010     107.111    -132.637
  C        1.679     107.376    -132.629
  C        1.032     108.492    -132.119
  C        1.824     109.521    -131.499
  O        1.422     110.534    -130.942
  N       -0.332     108.399    -132.298
  C       -0.501     107.269    -132.960
  N        0.702     106.591    -133.140
  O       -3.369     101.566    -136.464
  O       -4.613     101.745    -134.221
  H        1.777     102.832    -134.137
  H       -3.056     100.735    -136.058
  H        3.792     109.952    -131.196
  H       -1.461     106.908    -133.323
  H        1.553     105.417    -134.639
  H        1.896     104.595    -131.931
  H        5.694     108.724    -131.825
  H       -0.433     103.984    -131.680
  H        5.492     107.144    -132.505
  H       -0.226     102.797    -134.517
  H       -2.311     102.236    -133.368
  H       -2.604     103.953    -132.944
  P        1.086     101.899    -130.664
  C        3.449     102.484    -129.713
  O        2.498     102.685    -130.749
  O        1.493     100.359    -130.682
  O        0.213     102.241    -129.498
  H        1.545     100.012    -129.764
  H        3.426     101.454    -129.338
  H        3.222     103.184    -128.898
  H        4.443     102.706    -130.121
  H       -6.203     105.110    -136.204
  H       -4.746     105.242    -135.249
  H       -6.089     104.286    -134.667

 3  4  5  6  7  8  9  10  11  12  23  26  30  31  33  0
 6-311+G(2d,p)
 ****
 35  36  37  38 0
 6-311+G(2d,p)
 ****
 1  2  13  14  15  16  17  18  19  20  21  22  24  25  27  28  29 0
 3-21G
 ****
 32  34  39  40  41  42  43  44  45  46  47  48  49 0
 3-21G
 ****


