%nproc=1
%NoSave
%Mem=1900MB
#P OB98/GEN NMR

erre ene a

0 1
  C     -183.007    -109.600    -259.969
  O     -183.792    -109.305    -258.832
  P     -183.102    -109.172    -257.389
  C     -185.153    -110.237    -256.259
  O     -183.738    -110.283    -256.423
  C     -185.728    -111.651    -256.188
  O     -185.514    -112.356    -257.429
  C     -185.090    -112.531    -255.115
  O     -185.499    -112.160    -253.815
  C     -185.541    -113.908    -255.570
  O     -186.888    -114.174    -255.144
  C     -185.479    -113.771    -257.108
  N     -184.312    -114.421    -257.677
  C     -184.556    -115.562    -258.453
  O     -185.695    -116.010    -258.561
  N     -183.493    -116.166    -259.082
  C     -182.287    -115.747    -258.855
  N     -181.283    -116.347    -259.554
  C     -181.978    -114.652    -257.916
  C     -183.025    -114.025    -257.383
  O     -183.080    -107.790    -256.823
  O     -181.612    -109.715    -257.620
  H     -180.979    -109.066    -257.256
  H     -187.373    -113.326    -255.216
  H     -180.948    -114.385    -257.709
  H     -182.893    -113.191    -256.702
  H     -186.383    -114.199    -257.560
  H     -184.913    -114.708    -255.161
  H     -183.995    -112.460    -255.195
  H     -186.812    -111.566    -256.020
  H     -181.539    -117.083    -260.201
  H     -185.587    -109.703    -257.109
  H     -180.381    -115.898    -259.701
  H     -185.392    -109.675    -255.347
  P     -184.434    -111.363    -252.915
  C     -183.954    -113.476    -251.498
  O     -183.421    -112.445    -252.303
  O     -185.297    -110.890    -251.654
  O     -183.784    -110.203    -253.596
  H     -184.994    -110.004    -251.358
  H     -183.232    -114.298    -251.457
  H     -184.900    -113.860    -251.900
  H     -184.122    -113.099    -250.479
  H     -183.636    -109.649    -260.834
  H     -182.518    -110.541    -259.830
  H     -182.273    -108.833    -260.104

 3  4  5  6  7  8  9  10  11  12  13  24  27  28  29  30  32 0
 6-311+G(2d,p)
 ****
 34  35 0
 6-311+G(2d,p)
 ****
 1  2  14  15  16  17  18  19  20  21  22  23  25  26 0
 3-21G
 ****
 31  33  36  37  38  39  40  41  42  43  44  45  46 0
 3-21G
 ****


