%nproc=1
%NoSave
%Mem=1900MB
#P OB98/GEN NMR

erre ene a

0 1
  C       -7.592    -107.484      78.425
  O       -7.475    -108.574      79.312
  P       -8.659    -108.957      80.319
  C       -7.085    -109.519      82.280
  O       -8.055    -110.019      81.364
  C       -6.147    -110.646      82.728
  O       -6.896    -111.571      83.573
  C       -5.569    -111.449      81.544
  O       -4.145    -111.570      81.549
  C       -6.335    -112.761      81.623
  O       -5.697    -113.840      80.966
  C       -6.555    -112.900      83.133
  N       -7.589    -113.880      83.459
  C       -7.165    -115.165      83.787
  O       -5.991    -115.521      83.830
  N       -8.155    -116.080      84.016
  C       -9.489    -115.878      83.838
  O      -10.315    -116.772      83.965
  C       -9.876    -114.511      83.451
  C       -8.929    -113.582      83.306
  O       -9.935    -109.388      79.675
  O       -8.804    -107.644      81.227
  H       -5.799    -113.707      80.004
  H       -8.002    -107.397      81.718
  H       -7.862    -117.017      84.254
  H      -10.927    -114.323      83.293
  H       -9.183    -112.566      83.020
  H       -5.635    -113.188      83.647
  H       -7.302    -112.613      81.126
  H       -5.791    -110.957      80.589
  H       -5.348    -110.197      83.326
  H       -7.603    -109.116      83.154
  H       -6.528    -108.698      81.819
  P       -3.201    -111.378      80.270
  C       -2.148    -113.744      80.488
  O       -1.940    -112.347      80.431
  O       -2.872    -109.962      79.930
  O       -4.038    -112.060      79.085
  H       -3.815    -111.628      78.240
  H       -1.345    -114.197      81.078
  H       -2.114    -114.156      79.478
  H       -3.108    -113.992      80.952
  H       -6.698    -107.400      77.844
  H       -7.740    -106.584      78.984
  H       -8.427    -107.642      77.774

 3  4  5  6  7  8  9  10  11  12  13  23  28  29  30  31  32 0
 6-311+G(2d,p)
 ****
 33  34 0
 6-311+G(2d,p)
 ****
 1  2  14  15  16  17  18  19  20  21  22  24  25  26  27 0
 3-21G
 ****
 35  36  37  38  39  40  41  42  43  44  45 0
 3-21G
 ****


