%nproc=1
%NoSave
%Mem=1900MB
#P OB98/GEN NMR

erre ene a

0 1
  C      741.766     697.996     231.562
  O      743.030     698.573     231.810
  H      741.626     697.140     232.232
  H      741.718     697.642     230.524
  H      740.967     698.726     231.743
  P      743.361     699.947     231.061
  C      745.858     700.040     230.260
  O      744.924     700.212     231.306
  C      747.286     700.325     230.742
  O      747.307     701.632     231.378
  C      747.799     699.316     231.772
  O      749.205     699.126     231.555
  C      747.579     700.011     233.105
  O      748.442     699.508     234.126
  C      747.827     701.479     232.709
  N      747.210     702.420     233.647
  C      748.078     703.184     234.435
  O      749.300     703.043     234.334
  N      747.538     704.052     235.360
  C      746.259     704.111     235.520
  N      745.791     704.969     236.468
  C      745.304     703.277     234.748
  C      745.854     702.472     233.846
  O      742.646     701.025     232.010
  O      742.921     699.992     229.632
  H      748.306     700.033     234.937
  H      742.802     700.872     232.955
  H      744.237     703.354     234.928
  H      745.221     701.831     233.215
  H      748.911     701.693     232.680
  H      746.553     699.874     233.443
  H      747.300     698.345     231.710
  H      747.939     700.381     229.873
  H      746.484     705.498     236.988
  H      745.624     700.704     229.417
  H      744.817     705.058     236.722
  H      745.783     698.997     229.901
  P      749.718     697.824     230.757
  C      751.689     696.942     232.209
  O      751.292     697.643     231.018
  O      749.292     697.731     229.336
  O      749.087     696.623     231.626
  H      748.777     695.942     231.000
  H      752.757     696.895     232.256
  H      751.289     695.950     232.189
  H      751.317     697.460     233.068

 6  7  8  9  10  11  12  13  14  15  16  26  30  31  32  33  35 0
 6-311+G(2d,p)
 ****
 37  38 0
 6-311+G(2d,p)
 ****
 1  2  3  4  5  17  18  19  20  21  22  23  24  25 0
 3-21G
 ****
 27  28  29  34  36  39  40  41  42  43  44  45  46 0
 3-21G
 ****


