%nproc=1
%NoSave
%Mem=1900MB
#P OB98/GEN NMR

erre ene a

0 1
  C     -777.315     254.648    -153.590
  O     -776.292     255.631    -153.541
  P     -775.416     255.719    -152.199
  C     -775.823     258.257    -151.782
  O     -776.011     256.925    -151.331
  C     -776.473     259.238    -150.819
  O     -777.911     259.195    -150.966
  C     -776.210     258.944    -149.346
  O     -774.896     259.352    -148.978
  C     -777.319     259.779    -148.692
  O     -776.963     261.163    -148.662
  C     -778.490     259.548    -149.674
  N     -783.306     258.397    -148.342
  C     -782.721     259.568    -148.673
  N     -781.421     259.812    -148.996
  C     -780.719     258.660    -148.960
  C     -781.168     257.394    -148.609
  C     -782.534     257.267    -148.295
  N     -783.127     256.091    -147.947
  N     -780.151     256.469    -148.654
  C     -779.094     257.159    -149.037
  N     -779.380     258.492    -149.247
  O     -774.012     256.290    -152.715
  O     -775.257     254.413    -151.467
  H     -777.686     261.640    -148.220
  H     -773.265     255.920    -152.195
  H     -783.369     260.442    -148.690
  H     -778.100     256.749    -149.187
  H     -779.091     260.459    -149.820
  H     -777.543     259.463    -147.663
  H     -776.344     257.889    -149.126
  H     -776.128     260.254    -151.081
  H     -776.290     258.369    -152.771
  H     -784.071     256.122    -147.597
  H     -782.527     255.293    -147.785
  H     -774.754     258.447    -151.898
  P     -774.216     258.595    -147.723
  C     -773.978     260.912    -146.614
  O     -774.488     259.596    -146.501
  O     -772.665     258.815    -148.019
  O     -774.646     257.182    -147.544
  H     -772.468     259.751    -148.238
  H     -774.274     261.489    -145.758
  H     -774.367     261.394    -147.523
  H     -772.876     260.877    -146.666
  H     -777.815     254.701    -154.534
  H     -778.018     254.826    -152.803
  H     -776.882     253.677    -153.469

 3  4  5  6  7  8  9  10  11  12  22  25  29  30  31  32 0
 6-311+G(2d,p)
 ****
 33  36  37 0
 6-311+G(2d,p)
 ****
 1  2  13  14  15  16  17  18  19  20  21  23  24  26 0
 3-21G
 ****
 27  28  34  35  38  39  40  41  42  43  44  45  46  47  48 0
 3-21G
 ****


