%nproc=1
%NoSave
%Mem=1900MB
#P OB98/GEN NMR

erre ene a

0 1
  C      -67.859      11.931     312.681
  O      -67.696      11.618     311.292
  P      -66.323      10.974     310.757
  C      -65.803      12.995     309.283
  O      -65.991      11.584     309.304
  C      -65.558      13.559     307.872
  O      -64.163      13.406     307.489
  C      -66.399      12.915     306.761
  O      -66.659      13.948     305.808
  C      -65.440      11.872     306.198
  O      -65.831      11.435     304.891
  C      -64.112      12.629     306.275
  N      -62.969      11.727     306.248
  C      -62.422      11.407     305.002
  O      -62.954      11.835     303.973
  N      -61.339      10.572     304.947
  C      -60.889      10.024     306.023
  N      -59.818       9.182     305.905
  C      -61.477      10.267     307.372
  C      -62.493      11.129     307.406
  O      -66.263       9.477     310.828
  O      -65.199      11.633     311.702
  H      -65.068      10.987     304.483
  H      -64.460      11.007     311.798
  H      -61.076       9.768     308.244
  H      -62.985      11.374     308.331
  H      -64.009      13.328     305.438
  H      -65.423      10.997     306.856
  H      -67.336      12.482     307.129
  H      -65.751      14.643     307.908
  H      -59.462       9.019     304.965
  H      -64.943      13.246     309.922
  H      -59.459       8.626     306.664
  H      -66.676      13.492     309.725
  P      -67.689      15.137     306.091
  C      -69.225      14.504     304.143
  O      -68.383      15.491     304.695
  O      -67.114      16.316     306.818
  O      -68.874      14.459     306.934
  H      -69.390      15.150     307.384
  H      -69.800      14.934     303.319
  H      -69.922      14.118     304.894
  H      -68.617      13.668     303.761
  H      -68.831      12.348     312.841
  H      -67.114      12.640     312.977
  H      -67.753      11.039     313.262

 3  4  5  6  7  8  9  10  11  12  13  23  27  28  29  30  32 0
 6-311+G(2d,p)
 ****
 34  35 0
 6-311+G(2d,p)
 ****
 1  2  14  15  16  17  18  19  20  21  22  24  25  26 0
 3-21G
 ****
 31  33  36  37  38  39  40  41  42  43  44  45  46 0
 3-21G
 ****


