%nproc=1
%NoSave
%Mem=1900MB
#P OB98/GEN NMR

erre ene a

0 1
  C      493.783     150.952    -329.148
  O      494.887     150.474    -329.890
  H      494.066     151.892    -328.666
  H      493.501     150.235    -328.372
  H      492.932     151.140    -329.810
  P      494.755     149.061    -330.633
  C      493.559     149.628    -332.856
  O      493.427     149.140    -331.524
  C      492.806     148.727    -333.835
  O      493.450     147.443    -333.932
  C      491.361     148.441    -333.433
  O      490.544     149.565    -333.684
  C      491.076     147.220    -334.289
  O      490.800     147.594    -335.648
  C      492.421     146.459    -334.193
  N      492.431     145.412    -333.176
  C      493.015     144.198    -333.549
  O      493.475     144.050    -334.683
  N      493.046     143.179    -332.630
  C      492.579     143.364    -331.436
  N      492.648     142.321    -330.569
  C      491.986     144.640    -330.992
  C      491.935     145.608    -331.907
  O      494.844     147.846    -329.761
  O      495.925     149.090    -331.724
  H      490.640     146.757    -336.128
  H      496.730     148.663    -331.373
  H      491.621     144.757    -329.985
  H      491.515     146.578    -331.663
  H      492.667     145.995    -335.159
  H      490.211     146.657    -333.932
  H      491.316     148.143    -332.380
  H      492.853     149.196    -334.827
  H      493.082     141.467    -330.915
  H      494.629     149.629    -333.094
  H      492.467     142.399    -329.580
  H      493.188     150.657    -332.929
  P      489.197     149.821    -332.850
  C      489.481     152.040    -331.581
  O      489.645     150.631    -331.536
  O      488.372     148.608    -332.590
  O      488.437     150.944    -333.702
  H      488.006     150.539    -334.497
  H      489.811     152.467    -330.657
  H      488.448     152.274    -331.734
  H      490.060     152.441    -332.386

 6  7  8  9  10  11  12  13  14  15  16  26  30  31  32  33  35 0
 6-311+G(2d,p)
 ****
 37  38 0
 6-311+G(2d,p)
 ****
 1  2  3  4  5  17  18  19  20  21  22  23  24  25 0
 3-21G
 ****
 27  28  29  34  36  39  40  41  42  43  44  45  46 0
 3-21G
 ****


