%nproc=1
%NoSave
%Mem=1900MB
#P OB98/GEN NMR

erre ene a

0 1
  C      373.513     -38.370    -632.414
  O      374.235     -39.494    -632.905
  P      373.441     -40.888    -633.008
  C      375.721     -42.076    -633.446
  O      374.520     -42.033    -632.671
  C      376.703     -43.076    -632.834
  O      377.250     -42.543    -631.613
  C      376.082     -44.409    -632.459
  O      375.899     -45.212    -633.610
  C      377.115     -44.964    -631.491
  O      378.163     -45.653    -632.179
  C      377.658     -43.677    -630.813
  N      377.217     -43.536    -629.439
  C      377.975     -44.234    -628.475
  O      378.939     -44.928    -628.828
  N      377.587     -44.160    -627.150
  C      376.554     -43.458    -626.827
  N      376.221     -43.412    -625.505
  C      375.711     -42.723    -627.804
  C      376.094     -42.813    -629.076
  O      373.193     -41.057    -634.582
  O      372.165     -40.946    -632.222
  H      377.724     -46.339    -632.710
  H      372.408     -41.599    -634.748
  H      374.848     -42.158    -627.478
  H      375.545     -42.319    -629.866
  H      378.762     -43.679    -630.814
  H      376.671     -45.672    -630.780
  H      375.124     -44.258    -631.950
  H      377.533     -43.212    -633.555
  H      376.802     -43.940    -624.856
  H      376.173     -41.083    -633.465
  H      375.440     -42.887    -625.146
  H      375.467     -42.350    -634.475
  P      374.464     -45.895    -633.820
  C      375.296     -47.237    -635.842
  O      374.784     -47.295    -634.529
  O      373.848     -45.045    -635.036
  O      373.556     -45.948    -632.644
  H      372.926     -45.305    -635.186
  H      375.617     -48.238    -636.153
  H      376.156     -46.562    -635.886
  H      374.519     -46.894    -636.536
  H      374.155     -37.514    -632.397
  H      373.165     -38.575    -631.423
  H      372.677     -38.176    -633.053

 3  4  5  6  7  8  9  10  11  12  13  21  23  27  28  29  30  32 0
 6-311+G(2d,p)
 ****
 34  35 0
 6-311+G(2d,p)
 ****
 1  2  14  15  16  17  18  19  20  22  24  25  26 0
 3-21G
 ****
 31  33  36  37  38  39  40  41  42  43  44  45  46 0
 3-21G
 ****


