%nproc=1
%NoSave
%Mem=1900MB
#P OB98/GEN NMR

erre ene a

0 1
  C     -100.852     204.339     -59.736
  O     -102.229     204.152     -59.992
  H     -100.693     205.365     -59.400
  H     -100.272     204.174     -60.648
  H     -100.518     203.653     -58.953
  P     -102.673     202.717     -60.556
  C     -103.860     201.355     -58.691
  O     -102.633     201.703     -59.316
  C     -103.823     199.890     -58.271
  O     -103.608     199.051     -59.430
  C     -102.696     199.547     -57.308
  O     -102.988     199.937     -55.978
  C     -102.622     198.039     -57.476
  O     -103.591     197.369     -56.654
  C     -102.945     197.855     -58.976
  N     -101.753     197.557     -59.762
  C     -101.909     196.589     -60.750
  O     -102.974     196.007     -60.962
  N     -100.785     196.278     -61.465
  C      -99.541     196.802     -61.268
  O      -98.558     196.428     -61.895
  C      -99.440     197.833     -60.220
  C     -100.532     198.151     -59.519
  O     -101.420     202.277     -61.451
  O     -103.948     202.710     -61.330
  H     -101.624     202.408     -62.395
  H     -103.359     197.584     -55.730
  H     -100.875     195.570     -62.177
  H      -98.468     198.274     -60.041
  H     -100.477     198.891     -58.728
  H     -103.656     197.029     -59.113
  H     -101.644     197.651     -57.192
  H     -101.754     199.988     -57.656
  H     -104.798     199.627     -57.835
  H     -104.685     201.504     -59.397
  H     -104.016     202.006     -57.825
  P     -101.782     200.032     -54.926
  C     -100.759     202.301     -55.767
  O     -100.629     200.898     -55.630
  O     -101.221     198.535     -54.962
  O     -102.198     200.519     -53.580
  H     -101.271     198.131     -55.846
  H      -99.893     202.693     -56.258
  H     -100.852     202.747     -54.799
  H     -101.630     202.524     -56.347

 6  7  8  9  10  11  12  13  14  15  16  27  31  32  33  34  35 0
 6-311+G(2d,p)
 ****
 36  37 0
 6-311+G(2d,p)
 ****
 1  2  3  4  5  17  18  19  20  21  22  23  24  25 0
 3-21G
 ****
 26  28  29  30  38  39  40  41  42  43  44  45 0
 3-21G
 ****


