%nproc=1
%NoSave
%Mem=1900MB
#P OB98/GEN NMR

erre ene a

0 1
  C       12.837     -23.166     153.167
  O       12.169     -24.361     152.760
  P       10.805     -24.782     153.485
  C       11.685     -26.377     155.310
  O       11.112     -25.110     155.026
  C       11.122     -26.958     156.616
  O       11.706     -26.265     157.752
  C        9.596     -26.830     156.720
  O        8.952     -28.060     157.052
  C        9.401     -25.693     157.705
  O        8.138     -25.730     158.354
  C       10.640     -25.805     158.602
  N       10.960     -24.533     159.257
  C        9.992     -24.004     160.100
  O        8.881     -24.510     160.251
  N       10.316     -22.829     160.725
  C       11.459     -22.111     160.529
  O       11.684     -21.039     161.078
  C       12.420     -22.687     159.577
  C       12.130     -23.853     158.995
  O        9.980     -25.802     152.774
  O       10.012     -23.387     153.587
  H        8.085     -24.969     158.973
  H        9.065     -23.567     153.421
  H        9.631     -22.441     161.355
  H       13.327     -22.133     159.380
  H       12.813     -24.294     158.280
  H       10.485     -26.548     159.393
  H        9.451     -24.745     157.154
  H        9.152     -26.553     155.757
  H       11.422     -28.009     156.660
  H       12.766     -26.273     155.407
  H       11.517     -27.051     154.462
  P        8.272     -29.044     155.989
  C        6.005     -27.797     156.132
  O        7.047     -28.275     155.305
  O        7.958     -30.416     156.482
  O        9.363     -29.116     154.817
  H        9.415     -30.032     154.483
  H        5.114     -27.646     155.518
  H        6.298     -26.839     156.569
  H        5.769     -28.509     156.928
  H       13.725     -23.037     152.583
  H       13.098     -23.238     154.202
  H       12.189     -22.327     153.020

 3  4  5  6  7  8  9  10  11  12  13  23  28  29  30  31  32 0
 6-311+G(2d,p)
 ****
 33  34 0
 6-311+G(2d,p)
 ****
 1  2  14  15  16  17  18  19  20  21  22  24  25  26  27 0
 3-21G
 ****
 35  36  37  38  39  40  41  42  43  44  45 0
 3-21G
 ****


