%nproc=1
%NoSave
%Mem=1900MB
#P OB98/GEN NMR

erre ene a

0 1
  C      -15.354       6.012      48.699
  O      -15.705       6.142      47.334
  H      -15.990       6.679      49.286
  H      -14.310       6.296      48.855
  H      -15.517       4.986      49.038
  P      -14.885       5.293      46.252
  C      -16.759       4.950      44.509
  O      -15.549       5.624      44.830
  C      -17.690       5.875      43.731
  O      -18.243       6.879      44.601
  C      -17.015       6.624      42.583
  O      -16.914       5.798      41.437
  C      -17.991       7.772      42.391
  O      -19.156       7.304      41.682
  C      -18.366       8.116      43.844
  N      -17.985      13.011      45.124
  C      -18.944      12.366      44.367
  N      -19.923      13.140      43.853
  N      -18.936      11.081      44.125
  C      -17.861      10.445      44.643
  C      -16.837      10.977      45.394
  C      -16.894      12.389      45.710
  O      -16.077      12.995      46.399
  N      -15.872      10.042      45.664
  C      -16.337       8.932      45.122
  N      -17.539       9.126      44.481
  O      -14.748       3.828      46.532
  O      -13.465       6.025      46.171
  H      -19.756       8.066      41.582
  H      -12.826       5.623      46.789
  H      -18.039      14.005      45.270
  H      -15.850       7.966      45.166
  H      -19.404       8.454      43.933
  H      -17.570       8.595      41.811
  H      -19.901      14.148      43.878
  H      -16.045       7.031      42.885
  H      -20.601      12.694      43.248
  H      -18.530       5.271      43.363
  H      -17.225       4.643      45.450
  H      -16.551       4.054      43.914
  P      -15.616       5.831      40.490
  C      -14.801       3.390      40.231
  O      -15.620       4.426      39.717
  O      -14.341       6.155      41.187
  O      -16.004       6.851      39.325
  H      -15.827       7.795      39.564
  H      -14.903       2.518      39.620
  H      -15.102       3.161      41.232
  H      -13.780       3.709      40.230

 6  7  8  9  10  11  12  13  14  15  26  29  33  34 0
 6-311+G(2d,p)
 ****
 36  38  39  40  41 0
 6-311+G(2d,p)
 ****
 1  2  3  4  5  16  17  18  19  20  21  22  23  24  25 0
 3-21G
 ****
 27  28  30  31  32  35  37  42  43  44  45  46  47 0
 3-21G
 ****
 48  49 0
 3-21G
 ****


