%nproc=1
%NoSave
%Mem=1900MB
#P OB98/GEN NMR

erre ene a

0 1
  C      446.363    -243.664     -63.728
  O      447.697    -243.924     -64.110
  P      448.390    -245.329     -63.746
  C      449.672    -246.295     -61.737
  O      448.985    -245.166     -62.264
  C      449.902    -246.126     -60.237
  O      448.657    -246.304     -59.492
  C      450.849    -247.146     -59.630
  O      452.202    -247.103     -60.033
  C      450.566    -246.975     -58.144
  O      451.272    -245.851     -57.612
  C      449.038    -246.703     -58.155
  N      448.269    -247.871     -57.703
  C      447.851    -247.836     -56.377
  O      448.087    -246.904     -55.607
  N      447.161    -248.935     -55.946
  C      446.898    -250.060     -56.679
  O      446.314    -251.035     -56.214
  C      447.388    -250.045     -58.066
  C      448.040    -248.967     -58.505
  O      449.361    -245.833     -64.756
  O      447.134    -246.303     -63.506
  H      452.219    -245.973     -57.810
  H      446.534    -246.025     -62.792
  H      446.854    -248.948     -54.984
  H      447.187    -250.918     -58.678
  H      448.411    -248.927     -59.530
  H      448.797    -245.859     -57.491
  H      450.869    -247.854     -57.562
  H      450.494    -248.155     -59.909
  H      450.239    -245.098     -60.057
  H      450.642    -246.381     -62.237
  H      449.105    -247.211     -61.955
  P      453.197    -248.349     -59.909
  C      454.219    -249.759     -57.991
  O      453.548    -248.569     -58.366
  O      454.325    -248.394     -60.890
  O      452.216    -249.583     -60.207
  H      452.713    -250.301     -60.639
  H      454.332    -249.763     -56.898
  H      455.208    -249.799     -58.440
  H      453.628    -250.640     -58.285
  H      446.082    -242.685     -64.057
  H      446.280    -243.720     -62.663
  H      445.716    -244.390     -64.175

 3  4  5  6  7  8  9  10  11  12  13  23  28  29  30  31  32 0
 6-311+G(2d,p)
 ****
 33  34 0
 6-311+G(2d,p)
 ****
 1  2  14  15  16  17  18  19  20  21  22  24  25  26  27 0
 3-21G
 ****
 35  36  37  38  39  40  41  42  43  44  45 0
 3-21G
 ****


