%nproc=1
%NoSave
%Mem=1900MB
#P OB98/GEN NMR

erre ene a

0 1
  C      -72.928    -594.130     222.551
  O      -72.190    -594.269     221.336
  P      -72.824    -593.554     220.040
  C      -73.792    -595.596     218.758
  O      -74.072    -594.445     219.557
  C      -75.080    -596.178     218.165
  O      -74.783    -597.365     217.365
  C      -76.114    -596.595     219.229
  O      -77.405    -596.327     218.669
  C      -75.865    -598.093     219.341
  O      -76.927    -598.780     219.988
  C      -75.634    -598.432     217.878
  N      -76.487    -603.466     217.731
  C      -77.306    -602.405     217.965
  N      -76.999    -601.097     217.992
  C      -75.694    -600.913     217.726
  C      -74.740    -601.881     217.459
  C      -75.183    -603.218     217.461
  N      -74.352    -604.297     217.233
  N      -73.492    -601.299     217.253
  C      -73.692    -600.010     217.468
  N      -75.020    -599.721     217.666
  O      -71.717    -593.780     218.903
  O      -73.141    -592.111     220.253
  H      -76.657    -599.711     220.170
  H      -71.173    -592.977     218.793
  H      -78.345    -602.664     218.166
  H      -72.926    -599.250     217.491
  H      -76.563    -598.421     217.293
  H      -74.960    -598.262     219.934
  H      -76.010    -596.052     220.178
  H      -75.517    -595.429     217.486
  H      -73.289    -596.355     219.356
  H      -74.760    -605.219     217.268
  H      -73.372    -604.156     217.051
  H      -73.084    -595.313     217.962
  P      -78.186    -595.000     219.119
  C      -80.117    -596.252     220.253
  O      -78.983    -595.432     220.448
  O      -79.368    -594.972     218.036
  O      -77.371    -593.749     219.180
  H      -79.827    -595.831     217.983
  H      -80.517    -596.537     221.236
  H      -79.833    -597.164     219.711
  H      -80.892    -595.713     219.700
  H      -72.416    -594.641     223.339
  H      -73.903    -594.552     222.426
  H      -73.017    -593.093     222.798

 3  4  5  6  7  8  9  10  11  12  22  25  29  30  31  32 0
 6-311+G(2d,p)
 ****
 33  36  37 0
 6-311+G(2d,p)
 ****
 1  2  13  14  15  16  17  18  19  20  21  23  24  26 0
 3-21G
 ****
 27  28  34  35  38  39  40  41  42  43  44  45  46  47  48 0
 3-21G
 ****


