%nproc=1
%NoSave
%Mem=1900MB
#P OB98/GEN NMR

erre ene a

0 1
  C        3.836    -418.555    -308.256
  O        2.671    -418.816    -309.044
  P        1.370    -419.341    -308.274
  C        0.753    -421.308    -306.699
  O        1.781    -420.633    -307.403
  C        1.126    -422.769    -306.414
  O        1.205    -423.526    -307.659
  C        2.466    -422.937    -305.699
  O        2.362    -424.086    -304.848
  C        3.421    -423.263    -306.835
  O        4.614    -423.888    -306.351
  C        2.518    -424.136    -307.711
  N        3.325    -427.285    -311.660
  C        2.841    -427.497    -310.409
  N        2.676    -426.604    -309.406
  C        3.038    -425.373    -309.817
  C        3.557    -425.006    -311.043
  C        3.704    -426.024    -311.991
  N        4.225    -425.823    -313.254
  N        3.848    -423.654    -311.063
  C        3.519    -423.215    -309.855
  N        2.993    -424.210    -309.081
  O        0.474    -419.964    -309.454
  O        0.627    -418.280    -307.537
  H        5.007    -424.410    -307.091
  H       -0.294    -419.385    -309.628
  H        2.543    -428.527    -310.185
  H        3.644    -422.211    -309.510
  H        2.442    -425.169    -307.336
  H        3.703    -422.340    -307.357
  H        2.788    -422.065    -305.123
  H        0.321    -423.220    -305.811
  H       -0.181    -421.276    -307.261
  H        4.323    -426.614    -313.871
  H        4.552    -424.905    -313.499
  H        0.541    -420.763    -305.758
  P        3.074    -423.976    -303.406
  C        5.317    -424.854    -302.434
  O        4.554    -424.579    -303.583
  O        2.321    -425.089    -302.528
  O        2.997    -422.621    -302.785
  H        2.365    -424.863    -301.592
  H        5.864    -425.788    -302.589
  H        4.693    -424.955    -301.544
  H        6.037    -424.049    -302.277
  H        4.626    -418.212    -308.891
  H        4.140    -419.453    -307.761
  H        3.613    -417.804    -307.527

 3  4  5  6  7  8  9  10  11  12  22  25  29  30  31  32 0
 6-311+G(2d,p)
 ****
 33  36  37 0
 6-311+G(2d,p)
 ****
 1  2  13  14  15  16  17  18  19  20  21  23  24  26 0
 3-21G
 ****
 27  28  34  35  38  39  40  41  42  43  44  45  46  47  48 0
 3-21G
 ****


