%nproc=1
%NoSave
%Mem=1900MB
#P OB98/GEN NMR

erre ene a

0 1
  C      -62.063      45.992     442.520
  O      -62.940      46.961     443.069
  P      -64.391      46.552     443.616
  C      -64.512      48.133     445.641
  O      -64.961      47.881     444.315
  C      -64.308      49.627     445.854
  O      -63.228      50.069     444.994
  C      -65.495      50.523     445.488
  O      -66.471      50.653     446.513
  C      -64.795      51.858     445.288
  O      -64.517      52.459     446.568
  C      -63.489      51.441     444.604
  N      -63.437      54.613     440.590
  C      -63.305      54.830     441.916
  N      -63.349      53.935     442.926
  C      -63.508      52.692     442.446
  C      -63.654      52.310     441.122
  C      -63.612      53.341     440.163
  N      -63.727      53.112     438.808
  N      -63.820      50.942     441.020
  C      -63.760      50.508     442.261
  N      -63.566      51.524     443.154
  O      -64.414      45.319     444.448
  O      -65.291      46.431     442.300
  H      -65.378      52.596     447.009
  H      -66.107      45.933     442.493
  H      -63.147      55.865     442.212
  H      -63.859      49.474     442.557
  H      -62.631      52.040     444.935
  H      -65.398      52.577     444.724
  H      -65.952      50.210     444.541
  H      -64.002      49.794     446.892
  H      -63.553      47.612     445.784
  H      -63.554      53.890     438.189
  H      -63.691      52.154     438.483
  H      -65.229      47.725     446.358
  P      -67.900      49.956     446.261
  C      -67.910      49.189     448.760
  O      -68.582      49.837     447.704
  O      -67.843      48.695     445.470
  O      -68.740      51.121     445.548
  H      -68.940      51.888     446.107
  H      -68.468      49.351     449.688
  H      -66.901      49.583     448.884
  H      -67.864      48.110     448.569
  H      -61.153      46.466     442.216
  H      -62.526      45.532     441.672
  H      -61.848      45.247     443.257

 3  4  5  6  7  8  9  10  11  12  22  25  29  30  31  32 0
 6-311+G(2d,p)
 ****
 33  36  37 0
 6-311+G(2d,p)
 ****
 1  2  13  14  15  16  17  18  19  20  21  23  24  26 0
 3-21G
 ****
 27  28  34  35  38  39  40  41  42  43  44  45  46  47  48 0
 3-21G
 ****


