%nproc=1
%NoSave
%Mem=1900MB
#P OB98/GEN NMR

erre ene a

0 1
  C      520.937      56.232     262.074
  O      519.565      56.267     262.412
  H      521.227      57.210     261.685
  H      521.113      55.481     261.301
  H      521.549      56.009     262.955
  P      518.924      55.015     263.180
  C      519.047      55.984     265.569
  O      519.545      55.010     264.661
  C      518.423      55.311     266.799
  O      519.471      54.583     267.517
  C      517.793      56.294     267.809
  O      516.708      55.603     268.445
  C      518.951      56.514     268.763
  O      518.559      57.169     269.947
  C      519.454      55.069     268.878
  N      520.767      54.911     269.491
  C      520.831      54.881     270.881
  O      519.858      54.974     271.634
  N      522.085      54.737     271.416
  C      523.252      54.615     270.712
  O      524.342      54.459     271.248
  C      523.119      54.658     269.251
  C      521.905      54.797     268.713
  O      518.997      53.709     262.463
  O      517.407      55.466     263.429
  H      516.826      55.031     262.777
  H      519.356      57.387     270.468
  H      522.151      54.715     272.425
  H      524.029      54.574     268.663
  H      521.777      54.828     267.631
  H      518.726      54.458     269.424
  H      519.698      57.154     268.294
  H      517.412      57.207     267.336
  H      517.694      54.565     266.462
  H      518.292      56.586     265.058
  H      519.872      56.639     265.879
  P      515.231      56.211     268.594
  C      514.506      55.489     266.208
  O      514.689      56.570     267.123
  O      515.133      57.345     269.557
  O      514.301      54.987     269.048
  H      513.533      55.324     269.545
  H      514.144      55.869     265.275
  H      513.796      54.797     266.611
  H      515.440      54.991     266.052

 6  7  8  9  10  11  12  13  14  15  16  27  31  32  33  34  35 0
 6-311+G(2d,p)
 ****
 36  37 0
 6-311+G(2d,p)
 ****
 1  2  3  4  5  17  18  19  20  21  22  23  24  25 0
 3-21G
 ****
 26  28  29  30  38  39  40  41  42  43  44  45 0
 3-21G
 ****


