%nproc=1
%NoSave
%Mem=1900MB
#P OB98/GEN NMR

erre ene a

0 1
  C       49.006     -45.165      54.556
  O       48.318     -45.960      55.511
  P       47.871     -47.436      55.065
  C       45.614     -46.777      53.983
  O       46.935     -47.258      53.770
  C       44.762     -46.964      52.732
  O       45.353     -46.201      51.642
  C       44.638     -48.422      52.260
  O       43.278     -48.685      51.886
  C       45.480     -48.460      50.995
  O       45.062     -49.491      50.107
  C       45.257     -47.041      50.472
  N       45.870     -46.255      45.519
  C       44.711     -46.444      46.245
  N       43.557     -46.486      45.540
  N       44.681     -46.584      47.545
  C       45.904     -46.489      48.122
  C       47.122     -46.295      47.511
  C       47.144     -46.203      46.065
  O       48.147     -46.124      45.357
  N       48.139     -46.238      48.431
  C       47.540     -46.400      49.595
  N       46.190     -46.608      49.456
  O       46.844     -47.859      56.220
  O       48.976     -48.427      54.935
  H       44.106     -49.368      49.957
  H       47.135     -48.696      56.628
  H       45.836     -46.172      44.515
  H       48.043     -46.410      50.555
  H       44.244     -46.936      50.061
  H       46.528     -48.630      51.264
  H       43.505     -46.350      44.542
  H       44.968     -49.160      52.996
  H       42.694     -46.600      46.057
  H       43.770     -46.530      52.918
  H       45.655     -45.712      54.235
  H       45.169     -47.321      54.824
  P       42.560     -49.898      52.658
  C       43.624     -51.564      50.957
  O       43.419     -51.206      52.310
  O       41.199     -50.106      51.834
  O       42.317     -49.636      54.107
  H       40.520     -50.522      52.397
  H       43.289     -50.781      50.267
  H       43.075     -52.482      50.744
  H       44.691     -51.741      50.794
  H       49.241     -44.214      54.986
  H       48.385     -45.024      53.696
  H       49.910     -45.658      54.266

 3  4  5  6  7  8  9  10  11  12  23  26  30  31  33  0
 6-311+G(2d,p)
 ****
 35  36  37  38 0
 6-311+G(2d,p)
 ****
 1  2  13  14  15  16  17  18  19  20  21  22  24  25  27  28  29 0
 3-21G
 ****
 32  34  39  40  41  42  43  44  45  46  47  48  49 0
 3-21G
 ****


