%nproc=1
%NoSave
%Mem=1900MB
#P OB98/GEN NMR

erre ene a

0 1
  C     -890.330    -490.864    1802.138
  O     -891.680    -490.449    1801.925
  P     -892.590    -491.094    1800.727
  C     -894.860    -491.255    1802.023
  O     -893.780    -491.938    1801.413
  C     -895.350    -491.940    1803.272
  O     -894.310    -491.903    1804.315
  C     -896.560    -491.359    1803.972
  O     -897.780    -491.632    1803.259
  C     -896.480    -492.015    1805.361
  O     -897.100    -493.299    1805.342
  C     -894.960    -492.126    1805.599
  N     -894.480    -491.244    1806.628
  C     -894.960    -491.447    1807.923
  O     -895.830    -492.305    1808.168
  N     -894.450    -490.655    1808.922
  C     -893.630    -489.725    1808.685
  N     -893.110    -488.959    1809.750
  C     -893.160    -489.362    1807.267
  C     -893.630    -490.154    1806.353
  O     -891.820    -491.829    1799.696
  O     -893.350    -489.798    1800.095
  H     -893.560    -490.016    1799.162
  H     -898.040    -493.156    1805.208
  H     -892.500    -488.560    1807.089
  H     -893.400    -489.986    1805.286
  H     -894.720    -493.180    1805.875
  H     -897.050    -491.426    1806.115
  H     -896.440    -490.241    1804.067
  H     -895.530    -493.037    1803.042
  H     -893.460    -489.252    1810.683
  H     -895.690    -491.181    1801.324
  H     -892.470    -488.221    1809.616
  H     -894.530    -490.190    1802.259
  P     -898.490    -490.355    1802.567
  C     -898.660    -490.891    1799.978
  O     -897.920    -490.282    1801.007
  O     -897.830    -489.071    1803.267
  O     -900.000    -490.344    1802.652
  H     -898.500    -488.341    1803.431
  H     -898.450    -490.334    1799.064
  H     -899.740    -490.823    1800.172
  H     -898.380    -491.906    1799.894
  H     -889.917    -490.324    1802.964
  H     -889.753    -490.667    1801.259
  H     -890.309    -491.912    1802.351

 3  4  5  6  7  8  9  10  11  12  13  24  27  28  29  30  32 0
 6-311+G(2d,p)
 ****
 34  35 0
 6-311+G(2d,p)
 ****
 1  2  14  15  16  17  18  19  20  21  22  23  25  26 0
 3-21G
 ****
 31  33  36  37  38  39  40  41  42  43  44  45  46 0
 3-21G
 ****


