%nproc=1
%NoSave
%Mem=1900MB
#P OB98/GEN NMR

erre ene a

0 1
  C       28.531     232.944     425.016
  O       27.910     232.144     426.034
  P       27.244     230.712     425.748
  C       25.200     231.630     427.054
  O       26.037     230.508     426.790
  C       24.168     231.294     428.135
  O       23.198     230.347     427.629
  C       24.729     230.622     429.382
  O       25.446     231.523     430.205
  C       23.455     230.069     430.019
  O       22.790     231.064     430.813
  C       22.598     229.721     428.786
  N       22.444     228.287     428.585
  C       21.450     227.651     429.331
  O       20.805     228.278     430.168
  N       21.224     226.314     429.112
  C       21.995     225.650     428.310
  N       21.710     224.332     428.121
  C       23.144     226.257     427.610
  C       23.305     227.566     427.788
  O       28.220     229.584     425.730
  O       26.505     230.865     424.336
  H       26.442     229.990     423.905
  H       21.950     230.665     431.115
  H       23.786     225.658     426.978
  H       24.117     228.093     427.298
  H       21.603     230.177     428.876
  H       23.661     229.217     430.671
  H       25.377     229.790     429.083
  H       23.644     232.222     428.404
  H       20.909     223.954     428.610
  H       24.671     231.889     426.129
  H       22.231     223.734     427.499
  H       25.818     232.479     427.352
  P       27.012     231.698     429.896
  C       27.447     229.670     431.453
  O       27.824     230.977     431.074
  O       27.272     233.258     430.153
  O       27.418     231.298     428.513
  H       27.897     233.600     429.485
  H       28.323     229.158     431.864
  H       27.062     229.096     430.606
  H       26.679     229.729     432.231
  H       28.899     233.850     425.450
  H       27.813     233.177     424.258
  H       29.344     232.401     424.582

 3  4  5  6  7  8  9  10  11  12  13  24  27  28  29  30  32 0
 6-311+G(2d,p)
 ****
 34  35 0
 6-311+G(2d,p)
 ****
 1  2  14  15  16  17  18  19  20  21  22  23  25  26 0
 3-21G
 ****
 31  33  36  37  38  39  40  41  42  43  44  45  46 0
 3-21G
 ****


