%nproc=1
%NoSave
%Mem=1900MB
#P OB98/GEN NMR

erre ene a

0 1
  C      420.889      57.586    -170.375
  O      420.746      57.257    -169.007
  P      419.779      58.109    -168.044
  C      417.944      56.294    -168.186
  O      418.832      57.026    -167.341
  C      417.195      55.251    -167.357
  O      418.029      54.087    -167.176
  C      416.817      55.705    -165.953
  O      415.696      56.580    -165.986
  C      416.582      54.370    -165.266
  O      415.282      53.851    -165.604
  C      417.674      53.486    -165.910
  N      418.850      53.335    -165.051
  C      418.657      52.658    -163.844
  O      417.545      52.224    -163.529
  N      419.733      52.471    -163.018
  C      420.900      52.928    -163.360
  N      421.946      52.646    -162.533
  C      421.138      53.685    -164.595
  C      420.082      53.849    -165.392
  O      419.056      59.228    -168.714
  O      420.720      58.580    -166.843
  H      414.629      54.533    -165.364
  H      421.182      59.436    -167.014
  H      422.127      54.061    -164.828
  H      420.174      54.376    -166.326
  H      417.273      52.495    -166.139
  H      416.642      54.423    -164.175
  H      417.657      56.225    -165.480
  H      416.297      54.951    -167.918
  H      421.768      51.978    -161.791
  H      418.534      55.786    -168.954
  H      422.901      52.714    -162.852
  H      417.253      56.986    -168.664
  P      415.450      57.517    -164.709
  C      415.806      59.717    -166.024
  O      414.907      58.917    -165.286
  O      416.928      57.837    -164.192
  O      414.601      56.896    -163.645
  H      417.150      57.272    -163.425
  H      415.235      60.493    -166.535
  H      416.334      59.119    -166.781
  H      416.527      60.191    -165.359
  H      421.572      56.903    -170.837
  H      421.267      58.583    -170.464
  H      419.937      57.520    -170.859

 3  4  5  6  7  8  9  10  11  12  13  23  27  28  29  30  32 0
 6-311+G(2d,p)
 ****
 34  35 0
 6-311+G(2d,p)
 ****
 1  2  14  15  16  17  18  19  20  21  22  24  25  26 0
 3-21G
 ****
 31  33  36  37  38  39  40  41  42  43  44  45  46 0
 3-21G
 ****


