%nproc=1
%NoSave
%Mem=1900MB
#P OB98/GEN NMR

erre ene a

0 1
  C      -50.313       4.011     -16.004
  O      -51.119       4.830     -16.833
  P      -50.952       6.419     -16.718
  C      -53.196       6.765     -15.459
  O      -51.784       6.913     -15.437
  C      -53.887       8.094     -15.147
  O      -55.317       7.959     -15.357
  C      -53.683       8.567     -13.704
  O      -53.628      10.001     -13.678
  C      -54.964       8.151     -13.012
  O      -55.208       8.938     -11.846
  C      -55.977       8.354     -14.138
  N      -60.672       8.468     -12.276
  C      -59.814       9.513     -12.552
  N      -60.235      10.747     -12.203
  N      -58.649       9.362     -13.125
  C      -58.357       8.070     -13.413
  C      -59.133       6.952     -13.202
  C      -60.414       7.133     -12.556
  O      -61.208       6.248     -12.258
  N      -58.514       5.819     -13.659
  C      -57.347       6.238     -14.108
  N      -57.191       7.591     -13.947
  O      -51.814       6.959     -17.955
  O      -49.545       6.905     -16.795
  H      -55.983       8.547     -11.399
  H      -51.219       7.260     -18.667
  H      -61.556       8.635     -11.822
  H      -56.576       5.608     -14.531
  H      -56.256       9.410     -14.242
  H      -54.903       7.100     -12.709
  H      -61.091      10.923     -11.698
  H      -52.791       8.161     -13.215
  H      -59.605      11.524     -12.353
  H      -53.529       8.849     -15.855
  H      -53.489       6.027     -14.711
  H      -53.511       6.399     -16.442
  P      -52.165      10.646     -13.522
  C      -52.250      10.055     -10.989
  O      -51.536       9.986     -12.206
  O      -52.472      12.153     -13.084
  O      -51.328      10.569     -14.754
  H      -51.733      12.736     -13.339
  H      -52.505       9.040     -10.670
  H      -53.169      10.640     -11.079
  H      -51.613      10.516     -10.230
  H      -50.537       2.982     -16.194
  H      -50.513       4.236     -14.977
  H      -49.281       4.196     -16.215

 3  4  5  6  7  8  9  10  11  12  23  26  30  31 0
 6-311+G(2d,p)
 ****
 33  35  36  37  38 0
 6-311+G(2d,p)
 ****
 1  2  13  14  15  16  17  18  19  20  21  22  24  25 0
 3-21G
 ****
 27  28  29  32  34  39  40  41  42  43  44  45  46  47  48  49 0
 3-21G
 ****


