%nproc=1
%NoSave
%Mem=1900MB
#P OB98/GEN NMR

erre ene a

0 1
  C     -489.617      99.727     -60.434
  O     -489.849      98.762     -59.423
  H     -488.877      99.333     -61.138
  H     -489.224     100.648     -59.993
  H     -490.546      99.941     -60.974
  P     -490.827      99.201     -58.226
  C     -489.044      98.279     -56.555
  O     -489.828      99.388     -56.977
  C     -488.204      98.668     -55.340
  O     -487.202      99.640     -55.704
  C     -488.997      99.311     -54.205
  O     -489.727      98.378     -53.422
  C     -487.856      99.938     -53.413
  O     -487.154      98.913     -52.689
  C     -486.998     100.516     -54.562
  N     -487.344     101.903     -54.900
  C     -487.069     102.876     -53.934
  O     -486.566     102.568     -52.849
  N     -487.408     104.182     -54.193
  C     -487.943     104.493     -55.329
  N     -488.266     105.809     -55.530
  C     -488.241     103.503     -56.389
  C     -487.918     102.243     -56.107
  O     -491.593      97.845     -57.857
  O     -491.717     100.365     -58.499
  H     -486.513      99.367     -52.114
  H     -492.117      97.966     -57.026
  H     -488.704     103.810     -57.313
  H     -488.103     101.461     -56.834
  H     -485.930     100.473     -54.306
  H     -488.197     100.669     -52.684
  H     -489.652     100.109     -54.576
  H     -487.678      97.767     -54.997
  H     -488.105     106.454     -54.771
  H     -488.388      97.984     -57.383
  H     -488.820     106.123     -56.314
  H     -489.693      97.438     -56.293
  P     -490.493      98.937     -52.132
  C     -489.142      97.328     -50.585
  O     -489.540      98.668     -50.870
  O     -491.687      97.893     -51.930
  O     -491.004     100.344     -52.262
  H     -492.487      98.332     -51.574
  H     -488.513      97.319     -49.719
  H     -488.604      96.930     -51.420
  H     -490.010      96.729     -50.402

 6  7  8  9  10  11  12  13  14  15  16  26  30  31  32  33  35 0
 6-311+G(2d,p)
 ****
 37  38 0
 6-311+G(2d,p)
 ****
 1  2  3  4  5  17  18  19  20  21  22  23  24  25 0
 3-21G
 ****
 27  28  29  34  36  39  40  41  42  43  44  45  46 0
 3-21G
 ****


