%nproc=1
%NoSave
%Mem=1900MB
#P OB98/GEN NMR

erre ene a

0 1
  C     -462.148    -853.560     -94.038
  O     -463.425    -853.932     -94.517
  H     -461.474    -853.465     -94.887
  H     -461.765    -854.321     -93.353
  H     -462.210    -852.594     -93.523
  P     -464.589    -854.089     -93.412
  C     -465.270    -856.489     -94.179
  O     -465.644    -855.125     -94.036
  C     -466.406    -857.278     -94.860
  O     -467.676    -856.792     -94.334
  C     -466.451    -857.094     -96.391
  O     -466.991    -858.295     -96.971
  C     -467.461    -855.972     -96.539
  O     -467.931    -855.907     -97.860
  C     -468.466    -856.387     -95.471
  N     -472.108    -853.261     -97.218
  C     -471.437    -854.288     -97.805
  N     -470.484    -855.076     -97.268
  C     -470.265    -854.742     -95.977
  C     -470.866    -853.725     -95.251
  C     -471.830    -852.954     -95.933
  N     -472.496    -851.901     -95.355
  N     -470.350    -853.682     -93.967
  C     -469.464    -854.660     -93.923
  N     -469.377    -855.323     -95.110
  O     -465.341    -852.676     -93.484
  O     -464.129    -854.410     -92.033
  H     -468.594    -855.189     -97.970
  H     -464.965    -852.065     -92.829
  H     -471.705    -854.485     -98.834
  H     -468.850    -854.911     -93.070
  H     -469.083    -857.248     -95.785
  H     -467.009    -855.001     -96.305
  H     -465.468    -856.884     -96.829
  H     -466.322    -858.334     -94.579
  H     -465.066    -856.902     -93.196
  H     -464.368    -856.549     -94.796
  H     -473.151    -851.380     -95.916
  H     -472.271    -851.636     -94.402
  P     -465.980    -859.407     -97.543
  C     -467.151    -859.908     -99.818
  O     -466.743    -860.398     -98.554
  O     -465.764    -860.348     -96.252
  O     -464.664    -858.900     -98.040
  H     -464.803    -860.545     -96.150
  H     -467.640    -860.689    -100.362
  H     -466.294    -859.575    -100.365
  H     -467.828    -859.090     -99.682

 6  7  8  9  10  11  12  13  14  15  25  28  32  33  34  35 0
 6-311+G(2d,p)
 ****
 36  37  40 0
 6-311+G(2d,p)
 ****
 1  2  3  4  5  16  17  18  19  20  21  22  23  24 0
 3-21G
 ****
 26  27  29  30  31  38  39 41  42  43  44  45  46  47  48 0
 3-21G
 ****


