%nproc=1
%NoSave
%Mem=1900MB
#P OB98/GEN NMR

erre ene a

0 1
  C       27.032    -218.276    1081.724
  O       28.044    -217.300    1081.872
  P       29.217    -217.169    1080.797
  C       30.502    -215.241    1079.673
  O       29.416    -215.609    1080.521
  C       30.374    -213.769    1079.263
  O       29.102    -213.522    1078.597
  C       30.385    -212.793    1080.422
  O       31.587    -212.680    1081.155
  C       29.865    -211.536    1079.753
  O       30.899    -210.854    1079.028
  C       28.809    -212.120    1078.781
  N       27.438    -211.894    1079.251
  C       27.105    -210.584    1079.548
  O       27.891    -209.622    1079.418
  N       25.833    -210.368    1080.014
  C       24.890    -211.342    1080.248
  O       23.792    -211.110    1080.723
  C       25.325    -212.720    1079.946
  C       26.556    -212.941    1079.461
  O       29.054    -218.004    1079.563
  O       30.531    -217.540    1081.645
  H       30.456    -210.240    1078.412
  H       30.703    -216.958    1082.391
  H       25.567    -209.411    1080.236
  H       24.594    -213.515    1080.116
  H       26.881    -213.926    1079.227
  H       28.914    -211.643    1077.784
  H       29.459    -210.820    1080.492
  H       29.638    -213.101    1081.145
  H       31.158    -213.557    1078.528
  H       30.474    -215.869    1078.765
  H       31.455    -215.421    1080.190
  P       31.648    -212.416    1082.733
  C       33.549    -212.462    1084.511
  O       33.027    -213.009    1083.308
  O       30.378    -212.713    1083.491
  O       31.930    -210.826    1082.790
  H       31.500    -210.472    1083.589
  H       34.494    -212.965    1084.720
  H       32.873    -212.659    1085.352
  H       33.725    -211.386    1084.406
  H       26.344    -218.203    1082.541
  H       27.474    -219.250    1081.716
  H       26.511    -218.113    1080.804

 3  4  5  6  7  8  9  10  11  12  13  23  28  29  30  31  32 0
 6-311+G(2d,p)
 ****
 33  34 0
 6-311+G(2d,p)
 ****
 1  2  14  15  16  17  18  19  20  21  22  24  25  26  27 0
 3-21G
 ****
 35  36  37  38  39  40  41  42  43  44  45 0
 3-21G
 ****


