%nproc=1
%NoSave
%Mem=1900MB
#P OB98/GEN NMR

erre ene a

0 1
  C     -548.372     536.442    -895.120
  O     -547.159     537.009    -894.650
  H     -548.194     535.871    -896.030
  H     -548.759     535.767    -894.350
  H     -549.106     537.222    -895.320
  P     -546.416     538.041    -895.640
  C     -545.715     536.253    -897.390
  O     -545.291     537.180    -896.410
  C     -544.498     535.747    -898.180
  O     -543.865     536.830    -898.910
  C     -543.391     535.146    -897.280
  O     -543.675     533.816    -896.910
  C     -542.210     535.219    -898.250
  O     -542.289     534.143    -899.210
  C     -542.440     536.586    -898.940
  N     -538.064     538.016    -896.670
  C     -538.499     536.842    -897.190
  N     -539.667     536.531    -897.770
  C     -540.472     537.607    -897.780
  C     -540.218     538.866    -897.290
  C     -538.927     539.061    -896.710
  N     -538.508     540.273    -896.170
  N     -541.282     539.707    -897.460
  C     -542.185     538.970    -898.090
  N     -541.739     537.682    -898.270
  O     -545.560     538.948    -894.640
  O     -547.314     538.851    -896.530
  H     -542.221     533.313    -898.700
  H     -545.323     539.799    -895.080
  H     -537.749     536.017    -897.140
  H     -543.180     539.317    -898.380
  H     -542.121     536.593    -900.000
  H     -541.250     535.127    -897.740
  H     -543.194     535.781    -896.410
  H     -544.843     534.988    -898.890
  H     -546.408     536.748    -898.100
  H     -537.665     540.251    -895.620
  H     -539.214     540.981    -896.060
  H     -546.234     535.424    -896.900
  P     -544.020     533.545    -895.360
  C     -541.496     533.706    -894.770
  O     -542.700     532.928    -894.690
  O     -545.030     532.280    -895.430
  O     -544.657     534.715    -894.640
  H     -545.632     532.263    -894.660
  H     -540.699     533.181    -894.287
  H     -541.647     534.648    -894.286
  H     -541.244     533.869    -895.797

 6  7  8  9  10  11  12  13  14  15  25  28  32  33  34  35 0
 6-311+G(2d,p)
 ****
 36  39  40 0
 6-311+G(2d,p)
 ****
 1  2  3  4  5  16  17  18  19  20  21  22  23  24 0
 3-21G
 ****
 26  27  29  30  31  37  38  41  42  43  44  45  46  47 0
 3-21G
 ****
 48 0
 3-21G
 ****


