%nproc=1
%NoSave
%Mem=1900MB
#P OB98/GEN NMR

erre ene a

0 1
  C     -191.937      30.728     -28.619
  O     -191.884      31.034     -27.240
  H     -192.549      31.481     -29.123
  H     -192.391      29.745     -28.770
  H     -190.931      30.744     -29.047
  P     -191.077      30.002     -26.313
  C     -189.098      31.618     -25.881
  O     -189.526      30.391     -26.452
  C     -187.680      31.487     -25.333
  O     -187.277      32.700     -24.661
  C     -187.494      30.349     -24.335
  O     -187.276      29.118     -25.004
  C     -186.270      30.826     -23.567
  O     -185.058      30.552     -24.303
  C     -186.518      32.338     -23.475
  N     -186.217      32.837     -18.460
  C     -185.324      32.284     -19.356
  N     -184.191      31.759     -18.837
  N     -185.525      32.236     -20.646
  C     -186.723      32.745     -21.018
  C     -187.694      33.317     -20.229
  C     -187.433      33.412     -18.808
  O     -188.146      33.964     -17.976
  N     -188.763      33.733     -20.980
  C     -188.454      33.381     -22.213
  N     -187.228      32.773     -22.287
  O     -191.182      28.619     -27.116
  O     -191.587      29.855     -24.921
  H     -184.999      31.162     -25.058
  H     -191.285      27.891     -26.474
  H     -185.995      32.874     -17.482
  H     -189.075      33.553     -23.082
  H     -185.582      32.908     -23.505
  H     -186.171      30.313     -22.610
  H     -184.117      31.507     -17.863
  H     -188.348      30.282     -23.651
  H     -183.574      31.290     -19.488
  H     -187.007      31.359     -26.191
  H     -189.779      31.885     -25.067
  H     -189.128      32.401     -26.644
  P     -186.785      27.863     -24.139
  C     -189.147      26.797     -24.295
  O     -188.076      27.199     -23.454
  O     -186.022      28.553     -22.912
  O     -185.886      26.920     -24.863
  H     -185.058      28.457     -23.024
  H     -189.929      26.375     -23.699
  H     -188.797      26.066     -24.993
  H     -189.522      27.647     -24.826

 6  7  8  9  10  11  12  13  14  15  26  29  33  34 0
 6-311+G(2d,p)
 ****
 36  38  39  40  41 0
 6-311+G(2d,p)
 ****
 1  2  3  4  5  16  17  18  19  20  21  22  23  24  25 0
 3-21G
 ****
 27  28  30  31  32  35  37  42  43  44  45  46  47 0
 3-21G
 ****
 48  49 0
 3-21G
 ****


