%nproc=1
%NoSave
%Mem=1900MB
#P OB98/GEN NMR

erre ene a

0 1
  C       72.524      75.733     114.900
  O       72.768      74.474     115.504
  P       73.680      73.379     114.780
  C       73.292      71.890     112.651
  O       72.759      72.530     113.790
  C       72.278      70.855     112.144
  O       72.285      69.692     112.996
  C       70.859      71.420     112.128
  O       70.541      71.937     110.846
  C       70.021      70.219     112.523
  O       69.788      69.371     111.383
  C       70.949      69.510     113.539
  N       70.952      69.993     114.933
  C       70.931      69.075     115.979
  O       70.941      67.859     115.820
  N       70.873      69.613     117.242
  C       70.881      70.945     117.542
  O       70.588      71.410     118.638
  C       71.178      71.843     116.422
  C       71.176      71.340     115.189
  O       74.008      72.347     115.957
  O       74.920      73.903     114.131
  H       69.171      69.842     110.796
  H       74.892      72.520     116.331
  H       70.717      68.955     117.998
  H       71.333      72.894     116.634
  H       71.355      71.993     114.339
  H       70.745      68.434     113.570
  H       69.039      70.525     112.880
  H       70.750      72.193     112.901
  H       72.572      70.536     111.135
  H       74.240      71.402     112.903
  H       73.504      72.627     111.870
  P       69.449      73.099     110.710
  C       67.036      73.339     111.540
  O       68.068      72.438     111.188
  O       69.406      73.793     109.389
  O       69.835      74.105     111.898
  H       70.372      74.845     111.545
  H       66.109      72.776     111.670
  H       66.892      74.086     110.754
  H       67.284      73.833     112.483
  H       71.896      76.319     115.538
  H       72.039      75.588     113.957
  H       73.453      76.242     114.749

 3  4  5  6  7  8  9  10  11  12  13  23  28  29  30  31  32 0
 6-311+G(2d,p)
 ****
 33  34 0
 6-311+G(2d,p)
 ****
 1  2  14  15  16  17  18  19  20  21  22  24  25  26  27 0
 3-21G
 ****
 35  36  37  38  39  40  41  42  43  44  45 0
 3-21G
 ****


