%nproc=1
%NoSave
%Mem=1900MB
#P OB98/GEN NMR

erre ene a

0 1
  C      -13.941     107.058      16.980
  O      -13.626     106.195      15.906
  H      -13.555     108.054      16.752
  H      -13.479     106.706      17.906
  H      -15.025     107.125      17.106
  P      -13.985     104.641      16.046
  C      -13.300     102.716      17.631
  O      -13.127     104.080      17.278
  C      -13.352     102.549      19.155
  O      -12.021     102.779      19.698
  C      -14.307     103.530      19.854
  O      -14.799     102.880      21.033
  C      -13.361     104.657      20.219
  O      -13.938     105.531      21.158
  C      -12.130     103.856      20.654
  N      -10.925     104.667      20.705
  C      -10.383     104.889      21.974
  O      -10.929     104.421      22.973
  N       -9.255     105.661      22.082
  C       -8.752     106.219      21.026
  N       -7.643     106.985      21.205
  C       -9.328     106.058      19.675
  C      -10.401     105.273      19.587
  O      -13.883     103.835      14.794
  O      -15.482     104.641      16.618
  H      -14.044     105.088      22.030
  H      -16.106     104.403      15.907
  H       -8.883     106.560      18.829
  H      -10.896     105.094      18.638
  H      -12.289     103.404      21.642
  H      -13.124     105.260      19.337
  H      -15.139     103.842      19.219
  H      -13.614     101.509      19.386
  H       -7.288     107.076      22.149
  H      -12.451     102.160      17.223
  H       -7.178     107.483      20.462
  H      -14.222     102.325      17.187
  P      -15.907     101.721      20.991
  C      -18.230     101.304      19.948
  O      -17.204     102.256      20.217
  O      -16.202     101.114      22.325
  O      -15.312     100.614      19.996
  H      -15.628      99.735      20.273
  H      -19.035     101.783      19.431
  H      -18.590     100.898      20.870
  H      -17.835     100.516      19.341

 6  7  8  9  10  11  12  13  14  15  16  26  30  31  32  33  35 0
 6-311+G(2d,p)
 ****
 37  38 0
 6-311+G(2d,p)
 ****
 1  2  3  4  5  17  18  19  20  21  22  23  24  25 0
 3-21G
 ****
 27  28  29  34  36  39  40  41  42  43  44  45  46 0
 3-21G
 ****


