%nproc=1
%NoSave
%Mem=1900MB
#P OB98/GEN NMR

erre ene a

0 1
  C     -157.648     158.023     -20.551
  O     -157.086     156.731     -20.442
  P     -157.683     155.666     -19.403
  C     -157.237     153.396     -20.541
  O     -158.186     154.431     -20.300
  C     -157.544     152.671     -21.851
  O     -157.578     153.605     -22.950
  C     -156.516     151.616     -22.236
  O     -156.698     150.440     -21.470
  C     -156.802     151.456     -23.723
  O     -157.909     150.567     -23.948
  C     -157.167     152.897     -24.140
  N     -156.069     153.574     -24.819
  C     -155.553     152.920     -25.945
  O     -156.000     151.827     -26.290
  N     -154.508     153.502     -26.622
  C     -154.010     154.622     -26.196
  N     -152.969     155.141     -26.902
  C     -154.505     155.325     -24.996
  C     -155.524     154.749     -24.362
  O     -158.685     156.208     -18.440
  O     -156.372     155.079     -18.693
  H     -158.624     150.869     -23.352
  H     -155.988     155.727     -18.054
  H     -154.050     156.249     -24.674
  H     -155.948     155.196     -23.471
  H     -158.035     152.894     -24.812
  H     -155.944     151.043     -24.264
  H     -155.505     152.016     -22.098
  H     -158.540     152.215     -21.762
  H     -152.640     154.613     -27.701
  H     -157.288     152.682     -19.714
  H     -152.486     155.985     -26.639
  H     -156.230     153.825     -20.563
  P     -155.599     150.014     -20.390
  C     -157.398     149.050     -18.835
  O     -156.315     149.951     -18.958
  O     -154.325     150.791     -20.431
  O     -155.329     148.470     -20.723
  H     -154.366     148.304     -20.702
  H     -157.574     148.854     -17.774
  H     -157.182     148.105     -19.340
  H     -158.297     149.499     -19.267
  H     -157.116     158.582     -21.292
  H     -157.577     158.523     -19.608
  H     -158.676     157.942     -20.835

 3  4  5  6  7  8  9  10  11  12  13  23  27  28  29  30  32 0
 6-311+G(2d,p)
 ****
 34  35 0
 6-311+G(2d,p)
 ****
 1  2  14  15  16  17  18  19  20  21  22  24  25  26 0
 3-21G
 ****
 31  33  36  37  38  39  40  41  42  43  44  45  46 0
 3-21G
 ****


