%nproc=1
%NoSave
%Mem=1900MB
#P OB98/GEN NMR

erre ene a

0 1
  C       57.387    -112.448      25.462
  O       56.830    -113.454      24.640
  P       56.451    -113.171      23.107
  C       53.981    -112.591      23.537
  O       55.254    -112.100      23.145
  C       52.871    -112.049      22.635
  O       52.526    -110.696      23.048
  C       53.227    -111.999      21.141
  O       52.012    -112.260      20.429
  C       53.656    -110.556      20.955
  O       53.617    -110.142      19.594
  C       52.674    -109.840      21.895
  N       53.136    -108.501      22.254
  C       52.882    -107.481      21.333
  O       52.361    -107.740      20.245
  N       53.269    -106.200      21.642
  C       53.946    -105.982      22.726
  N       54.299    -104.693      22.982
  C       54.346    -107.050      23.659
  C       53.901    -108.271      23.373
  O       56.179    -114.385      22.284
  O       57.680    -112.298      22.569
  H       53.828    -109.185      19.555
  H       58.462    -112.874      22.389
  H       54.960    -106.829      24.521
  H       54.142    -109.122      24.002
  H       51.686    -109.750      21.425
  H       54.686    -110.428      21.315
  H       54.003    -112.710      20.853
  H       51.979    -112.668      22.787
  H       53.992    -103.989      22.322
  H       53.789    -112.263      24.563
  H       54.755    -104.403      23.836
  H       53.984    -113.688      23.532
  P       52.026    -112.783      18.916
  C       50.945    -110.606      18.104
  O       52.047    -111.486      17.973
  O       50.973    -113.788      18.583
  O       53.495    -113.396      18.723
  H       53.510    -113.958      17.926
  H       51.195    -109.647      17.641
  H       50.697    -110.440      19.157
  H       50.078    -111.030      17.592
  H       57.563    -112.844      26.440
  H       56.707    -111.624      25.528
  H       58.312    -112.115      25.040

 3  4  5  6  7  8  9  10  11  12  13  23  27  28  29  30  32 0
 6-311+G(2d,p)
 ****
 34  35 0
 6-311+G(2d,p)
 ****
 1  2  14  15  16  17  18  19  20  21  22  24  25  26 0
 3-21G
 ****
 31  33  36  37  38  39  40  41  42  43  44  45  46 0
 3-21G
 ****


