%nproc=1
%NoSave
%Mem=1900MB
#P OB98/GEN NMR

erre ene a

0 1
  C      -28.260    -109.263      80.417
  O      -29.380    -108.484      80.043
  H      -28.613    -110.233      80.775
  H      -27.710    -108.766      81.221
  H      -27.604    -109.420      79.558
  P      -29.068    -107.018      79.471
  C      -28.730    -106.052      77.074
  O      -29.183    -107.132      77.875
  C      -29.539    -105.976      75.773
  O      -29.345    -107.215      75.029
  C      -31.053    -105.822      75.990
  O      -31.591    -105.114      74.860
  C      -31.519    -107.268      75.954
  O      -32.918    -107.345      75.810
  C      -30.655    -107.781      74.806
  N      -33.115    -112.065      73.487
  C      -33.448    -110.762      73.362
  N      -32.737    -109.676      73.725
  C      -31.553    -110.037      74.250
  C      -31.071    -111.323      74.434
  C      -31.913    -112.373      74.029
  N      -31.581    -113.701      74.163
  N      -29.814    -111.295      75.009
  C      -29.544    -110.015      75.167
  N      -30.568    -109.220      74.731
  O      -27.499    -106.847      79.729
  O      -29.860    -105.910      80.080
  H      -33.200    -106.977      74.945
  H      -27.350    -106.373      80.568
  H      -34.418    -110.566      72.912
  H      -28.635    -109.612      75.596
  H      -31.012    -107.419      73.834
  H      -31.270    -107.780      76.889
  H      -31.308    -105.288      76.909
  H      -29.140    -105.168      75.150
  H      -27.671    -106.211      76.844
  H      -28.842    -105.115      77.627
  H      -32.247    -114.393      73.862
  H      -30.695    -113.945      74.581
  P      -31.760    -103.518      74.945
  C      -30.370    -101.436      74.182
  O      -30.606    -102.832      74.066
  O      -31.264    -103.210      76.439
  O      -33.143    -102.999      74.730
  H      -31.705    -102.405      76.770
  H      -29.571    -101.154      73.528
  H      -30.104    -101.202      75.192
  H      -31.257    -100.901      73.913

 6  7  8  9  10  11  12  13  14  15  25  28  32  33  34  35 0
 6-311+G(2d,p)
 ****
 36  37  40 0
 6-311+G(2d,p)
 ****
 1  2  3  4  5  16  17  18  19  20  21  22  23  24 0
 3-21G
 ****
 26  27  29  30  31  38  39 41  42  43  44  45  46  47  48 0
 3-21G
 ****


