%nproc=1
%NoSave
%Mem=1900MB
#P OB98/GEN NMR

erre ene a

0 1
  C     -256.772    -270.095     453.341
  O     -257.989    -269.597     452.819
  H     -256.102    -270.328     452.509
  H     -256.959    -271.010     453.910
  H     -256.295    -269.346     453.980
  P     -259.048    -269.023     453.880
  C     -259.445    -266.643     454.912
  O     -258.632    -267.496     454.128
  C     -258.942    -265.198     454.836
  O     -257.579    -265.155     455.327
  C     -258.947    -264.619     453.420
  O     -259.276    -263.232     453.500
  C     -257.501    -264.768     452.975
  O     -257.161    -263.854     451.936
  C     -256.757    -264.555     454.303
  N     -255.412    -265.129     454.285
  C     -254.347    -264.235     454.156
  O     -254.564    -263.025     454.048
  N     -253.067    -264.723     454.107
  C     -252.871    -266.003     454.120
  N     -251.579    -266.429     454.043
  C     -253.965    -266.990     454.211
  C     -255.196    -266.488     454.299
  O     -258.596    -269.764     455.226
  O     -260.477    -269.243     453.507
  H     -256.196    -263.918     451.767
  H     -257.634    -269.764     455.362
  H     -253.750    -268.048     454.207
  H     -256.060    -267.140     454.378
  H     -256.672    -263.486     454.530
  H     -257.326    -265.783     452.599
  H     -259.651    -265.129     452.757
  H     -259.545    -264.584     455.515
  H     -250.860    -265.721     453.959
  H     -259.446    -266.970     455.956
  H     -251.310    -267.400     453.987
  H     -260.471    -266.709     454.535
  P     -260.485    -262.654     452.627
  C     -262.999    -263.184     452.321
  O     -261.870    -263.238     453.185
  O     -260.312    -262.732     451.150
  O     -260.553    -261.115     453.093
  H     -260.721    -260.570     452.300
  H     -263.849    -263.604     452.818
  H     -262.794    -263.742     451.431
  H     -263.203    -262.166     452.065

 6  7  8  9  10  11  12  13  14  15  16  26  30  31  32  33  35 0
 6-311+G(2d,p)
 ****
 37  38 0
 6-311+G(2d,p)
 ****
 1  2  3  4  5  17  18  19  20  21  22  23  24  25 0
 3-21G
 ****
 27  28  29  34  36  39  40  41  42  43  44  45  46 0
 3-21G
 ****


