%nproc=1
%NoSave
%Mem=1900MB
#P OB98/GEN NMR

erre ene a

0 1
  C     -116.370     243.158      97.325
  O     -117.470     242.332      96.985
  H     -116.752     244.088      97.757
  H     -115.788     243.400      96.429
  H     -115.737     242.656      98.062
  P     -117.117     240.901      96.349
  C     -117.939     241.779      94.057
  O     -116.867     241.208      94.794
  C     -117.691     241.635      92.556
  O     -118.856     242.035      91.806
  C     -116.545     242.493      92.024
  O     -115.293     241.877      92.276
  C     -116.873     242.516      90.539
  O     -116.438     241.290      89.924
  C     -118.415     242.584      90.539
  N     -121.118     245.704      87.484
  C     -120.586     244.477      87.269
  N     -119.842     243.729      88.113
  C     -119.662     244.363      89.283
  C     -120.146     245.607      89.643
  C     -120.915     246.296      88.680
  N     -121.463     247.538      88.902
  N     -119.755     245.937      90.924
  C     -119.100     244.882      91.353
  N     -118.983     243.911      90.384
  O     -118.074     239.801      96.665
  O     -115.628     240.682      96.898
  H     -115.464     241.280      89.941
  H     -115.134     241.522      96.890
  H     -120.784     244.041      86.296
  H     -118.697     244.756      92.354
  H     -118.849     241.969      89.739
  H     -116.367     243.331      90.011
  H     -116.592     243.511      92.418
  H     -117.511     240.572      92.345
  H     -118.060     242.836      94.315
  H     -121.851     248.026      88.115
  H     -121.208     248.027      89.752
  H     -118.852     241.245      94.340
  P     -114.015     242.749      92.697
  C     -112.566     242.186      90.642
  O     -113.299     243.198      91.334
  O     -113.110     242.107      93.690
  O     -114.635     244.119      93.246
  H     -114.121     244.435      94.012
  H     -112.136     242.601      89.754
  H     -113.225     241.385      90.379
  H     -111.788     241.814      91.275

 6  7  8  9  10  11  12  13  14  15  25  28  32  33  34  35 0
 6-311+G(2d,p)
 ****
 36  39  40 0
 6-311+G(2d,p)
 ****
 1  2  3  4  5  16  17  18  19  20  21  22  23  24 0
 3-21G
 ****
 26  27  29  30  31  37  38  41  42  43  44  45  46  47 0
 3-21G
 ****
 48 0
 3-21G
 ****


