%nproc=1
%NoSave
%Mem=1900MB
#P OB98/GEN NMR

erre ene a

0 1
  C      643.024     152.532    -670.494
  O      644.432     152.603    -670.590
  H      642.667     151.739    -671.151
  H      642.584     153.480    -670.823
  H      642.711     152.310    -669.471
  P      645.228     153.565    -669.590
  C      646.662     151.544    -668.859
  O      645.850     152.631    -668.444
  C      647.648     151.156    -667.754
  O      648.763     152.094    -667.770
  C      647.051     151.179    -666.330
  O      647.751     150.191    -665.562
  C      647.424     152.589    -665.892
  O      647.235     152.793    -664.516
  C      648.863     152.639    -666.438
  N      649.466     153.972    -666.463
  C      650.785     154.091    -666.040
  O      651.480     153.158    -665.658
  N      651.308     155.363    -666.075
  C      650.657     156.483    -666.497
  O      651.181     157.588    -666.541
  C      649.262     156.292    -666.919
  C      648.742     155.066    -666.887
  O      644.474     154.753    -669.098
  O      646.522     153.998    -670.432
  H      646.397     154.898    -670.785
  H      647.472     153.719    -664.296
  H      652.264     155.461    -665.784
  H      648.710     157.168    -667.245
  H      647.717     154.891    -667.205
  H      649.505     151.966    -665.853
  H      646.787     153.316    -666.392
  H      645.983     150.971    -666.315
  H      648.066     150.164    -667.992
  H      647.217     151.851    -669.759
  H      646.023     150.690    -669.112
  P      647.263     148.666    -665.430
  C      649.263     147.480    -666.554
  O      647.899     147.829    -666.656
  O      645.784     148.518    -665.304
  O      648.016     148.094    -664.134
  H      647.493     147.362    -663.755
  H      649.557     146.932    -667.425
  H      649.412     146.875    -665.684
  H      649.854     148.369    -666.475

 6  7  8  9  10  11  12  13  14  15  16  27  31  32  33  34  35 0
 6-311+G(2d,p)
 ****
 36  37 0
 6-311+G(2d,p)
 ****
 1  2  3  4  5  17  18  19  20  21  22  23  24  25 0
 3-21G
 ****
 26  28  29  30  38  39  40  41  42  43  44  45 0
 3-21G
 ****


