%nproc=1
%NoSave
%Mem=1900MB
#P OB98/GEN NMR

erre ene a

0 1
  C      563.027     152.514     256.927
  O      562.493     151.798     258.046
  P      562.836     152.326     259.524
  C      560.474     153.219     260.089
  O      561.495     152.271     260.405
  C      559.134     152.508     259.813
  O      559.267     151.696     258.620
  C      558.687     151.547     260.920
  O      557.888     152.062     261.983
  C      557.787     150.596     260.134
  O      556.471     151.161     259.997
  C      558.451     150.507     258.763
  N      558.392     145.405     258.328
  C      557.402     146.315     258.467
  N      557.505     147.654     258.573
  C      558.789     148.051     258.519
  C      559.911     147.236     258.373
  C      559.673     145.855     258.283
  N      560.681     144.920     258.150
  N      561.063     147.996     258.367
  C      560.644     149.241     258.514
  N      559.279     149.327     258.591
  O      563.606     153.609     259.598
  O      563.691     151.111     260.140
  H      556.003     150.619     259.334
  H      564.402     151.480     260.695
  H      556.391     145.908     258.493
  H      561.292     150.102     258.568
  H      557.731     150.512     257.934
  H      557.655     149.626     260.641
  H      559.541     150.992     261.337
  H      558.359     153.260     259.635
  H      560.773     153.785     259.196
  H      560.434     143.954     258.135
  H      561.649     145.230     258.173
  H      560.421     153.927     260.910
  P      558.024     151.493     263.483
  C      558.537     153.862     264.472
  O      557.690     152.734     264.446
  O      559.317     150.808     263.784
  O      556.729     150.567     263.615
  H      555.893     151.050     263.631
  H      558.023     154.661     265.020
  H      558.755     154.215     263.465
  H      559.464     153.621     264.998
  H      562.712     152.043     256.019
  H      564.096     152.511     256.978
  H      562.672     153.523     256.947

 3  4  5  6  7  8  9  10  11  12  22  25  29  30  31  32 0
 6-311+G(2d,p)
 ****
 33  36  37 0
 6-311+G(2d,p)
 ****
 1  2  13  14  15  16  17  18  19  20  21  23  24  26 0
 3-21G
 ****
 27  28  34  35  38  39  40  41  42  43  44  45  46  47  48 0
 3-21G
 ****


