%nproc=1
%NoSave
%Mem=1900MB
#P OB98/GEN NMR

erre ene a

0 1
  C     -374.550      17.469    -563.501
  O     -375.515      17.809    -564.479
  H     -375.010      17.545    -562.513
  H     -373.701      18.161    -563.547
  H     -374.208      16.443    -563.650
  P     -375.025      17.792    -566.006
  C     -375.452      20.319    -566.363
  O     -374.486      19.282    -566.266
  C     -374.783      21.635    -566.773
  O     -373.992      22.144    -565.690
  C     -373.851      21.514    -567.970
  O     -374.586      21.582    -569.183
  C     -372.984      22.750    -567.782
  O     -373.677      23.911    -568.283
  C     -372.852      22.845    -566.252
  N     -367.893      23.654    -565.196
  C     -368.783      24.370    -565.920
  N     -370.069      24.068    -566.204
  C     -370.416      22.893    -565.651
  C     -369.615      22.053    -564.892
  C     -368.295      22.475    -564.664
  N     -367.386      21.745    -563.928
  N     -370.311      20.934    -564.497
  C     -371.530      21.125    -564.952
  N     -371.638      22.276    -565.693
  O     -376.009      17.264    -566.994
  O     -373.666      16.950    -565.881
  H     -373.034      24.648    -568.271
  H     -373.177      17.210    -565.078
  H     -368.417      25.308    -566.325
  H     -372.379      20.466    -564.767
  H     -372.895      23.883    -565.905
  H     -372.038      22.690    -568.324
  H     -373.222      20.622    -567.912
  H     -375.582      22.366    -566.973
  H     -375.965      20.452    -565.404
  H     -366.418      22.025    -563.979
  H     -367.652      20.812    -563.642
  H     -376.192      20.020    -567.111
  P     -373.902      21.218    -570.587
  C     -374.576      23.481    -571.611
  O     -373.498      22.626    -571.230
  O     -374.712      20.317    -571.456
  O     -372.488      20.586    -570.185
  H     -372.109      20.097    -570.943
  H     -374.184      24.386    -572.025
  H     -375.170      23.710    -570.751
  H     -375.182      22.987    -572.342

 6  7  8  9  10  11  12  13  14  15  25  28  32  33  34  35 0
 6-311+G(2d,p)
 ****
 36  39  40 0
 6-311+G(2d,p)
 ****
 1  2  3  4  5  16  17  18  19  20  21  22  23  24 0
 3-21G
 ****
 26  27  29  30  31  37  38  41  42  43  44  45  46  47 0
 3-21G
 ****
 48 0
 3-21G
 ****


