%nproc=1
%NoSave
%Mem=1900MB
#P OB98/GEN NMR

erre ene a

0 1
  C     -836.430     515.032     396.538
  O     -835.326     515.569     395.841
  H     -837.325     515.168     395.926
  H     -836.566     515.557     397.486
  H     -836.287     513.959     396.719
  P     -833.865     515.346     396.479
  C     -834.135     517.305     398.161
  O     -833.926     515.913     397.974
  C     -833.556     517.765     399.503
  O     -834.413     517.274     400.564
  C     -832.133     517.250     399.764
  O     -831.391     518.284     400.426
  C     -832.340     516.083     400.721
  O     -831.195     515.825     401.533
  C     -833.584     516.548     401.500
  N     -834.301     515.403     402.082
  C     -834.148     515.213     403.457
  O     -833.429     515.970     404.121
  N     -834.764     514.129     404.036
  C     -835.390     513.279     403.302
  N     -835.951     512.215     403.942
  C     -835.523     513.410     401.833
  C     -834.967     514.491     401.303
  O     -832.962     516.421     395.710
  O     -833.325     513.958     396.356
  H     -831.496     515.389     402.362
  H     -832.043     516.100     395.608
  H     -836.041     512.651     401.262
  H     -835.002     514.673     400.235
  H     -833.300     517.238     402.307
  H     -832.568     515.173     400.151
  H     -831.610     516.947     398.858
  H     -833.590     518.858     399.530
  H     -835.831     512.142     404.945
  H     -835.211     517.501     398.149
  H     -836.438     511.455     403.457
  H     -833.671     517.856     397.334
  P     -830.340     519.102     399.529
  C     -827.852     518.619     400.134
  O     -829.002     518.216     399.401
  O     -829.904     520.313     400.483
  O     -830.902     519.586     398.236
  H     -830.280     521.151     400.151
  H     -827.051     517.935     399.946
  H     -828.079     518.624     401.180
  H     -827.560     519.602     399.828

 6  7  8  9  10  11  12  13  14  15  16  26  30  31  32  33  35 0
 6-311+G(2d,p)
 ****
 37  38 0
 6-311+G(2d,p)
 ****
 1  2  3  4  5  17  18  19  20  21  22  23  24  25 0
 3-21G
 ****
 27  28  29  34  36  39  40  41  42  43  44  45  46 0
 3-21G
 ****


