%nproc=1
%NoSave
%Mem=1900MB
#P OB98/GEN NMR

erre ene a

0 1
  C       -8.125    -107.926     204.700
  O       -8.725    -109.140     205.091
  H       -7.185    -107.809     205.245
  H       -8.785    -107.092     204.957
  H       -7.914    -107.909     203.628
  P       -9.847    -109.782     204.150
  C      -11.569    -109.484     206.049
  O      -11.282    -109.284     204.671
  C      -12.989    -109.041     206.401
  O      -13.103    -107.610     206.247
  C      -14.044    -109.670     205.487
  O      -14.508    -110.939     205.911
  C      -15.163    -108.632     205.538
  O      -16.056    -108.881     206.636
  C      -14.413    -107.312     205.745
  N      -16.869    -104.703     202.099
  C      -17.393    -105.530     203.074
  N      -18.732    -105.706     203.044
  N      -16.662    -106.132     203.975
  C      -15.333    -105.938     203.816
  C      -14.697    -105.158     202.876
  C      -15.519    -104.436     201.929
  O      -15.105    -103.680     201.057
  N      -13.330    -105.236     202.997
  C      -13.146    -106.128     203.949
  N      -14.328    -106.521     204.530
  O       -9.846    -111.330     204.573
  O       -9.613    -109.638     202.677
  H      -16.426    -109.778     206.526
  H      -10.082    -111.879     203.803
  H      -17.484    -104.243     201.450
  H      -12.181    -106.488     204.289
  H      -14.908    -106.685     206.498
  H      -15.766    -108.666     204.628
  H      -19.330    -105.337     202.324
  H      -13.679    -109.726     204.457
  H      -19.132    -106.450     203.620
  H      -13.187    -109.266     207.457
  H      -10.843    -108.892     206.607
  H      -11.416    -110.533     206.321
  P      -15.246    -111.926     204.894
  C      -17.598    -111.747     206.044
  O      -16.803    -111.579     204.893
  O      -15.182    -113.336     205.647
  O      -14.654    -111.996     203.524
  H      -14.448    -113.878     205.301
  H      -18.605    -111.458     205.827
  H      -17.214    -111.137     206.835
  H      -17.579    -112.774     206.344

 6  7  8  9  10  11  12  13  14  15  26  29  33  34 0
 6-311+G(2d,p)
 ****
 36  38  39  40  41 0
 6-311+G(2d,p)
 ****
 1  2  3  4  5  16  17  18  19  20  21  22  23  24  25 0
 3-21G
 ****
 27  28  30  31  32  35  37  42  43  44  45  46  47 0
 3-21G
 ****
 48  49 0
 3-21G
 ****


