%nproc=1
%NoSave
%Mem=1900MB
#P OB98/GEN NMR

erre ene a

0 1
  C     -155.054      26.524     -51.596
  O     -154.168      27.120     -52.526
  H     -156.006      27.060     -51.624
  H     -154.636      26.598     -50.588
  H     -155.228      25.475     -51.852
  P     -152.798      26.339     -52.807
  C     -153.236      25.063     -55.057
  O     -153.166      25.011     -53.637
  C     -152.218      24.103     -55.666
  O     -152.516      22.740     -55.305
  C     -152.214      24.079     -57.186
  O     -151.642      25.240     -57.747
  C     -151.404      22.816     -57.446
  O     -149.996      23.072     -57.410
  C     -151.826      21.907     -56.265
  N     -152.635      20.787     -56.711
  C     -152.062      19.994     -57.716
  O     -150.939      20.258     -58.144
  N     -152.792      18.955     -58.227
  C     -153.997      18.741     -57.800
  N     -154.680      17.713     -58.373
  C     -154.640      19.553     -56.744
  C     -153.908      20.551     -56.249
  O     -152.421      25.773     -51.359
  O     -151.726      27.162     -53.439
  H     -149.555      22.195     -57.404
  H     -153.157      25.320     -50.913
  H     -155.642      19.323     -56.411
  H     -154.301      21.197     -55.472
  H     -150.939      21.507     -55.753
  H     -151.625      22.392     -58.428
  H     -153.232      23.915     -57.563
  H     -151.226      24.361     -55.270
  H     -154.225      17.217     -59.132
  H     -153.060      26.082     -55.412
  H     -155.647      17.503     -58.176
  H     -154.251      24.779     -55.350
  P     -151.908      25.646     -59.272
  C     -153.589      27.470     -58.571
  O     -153.385      26.283     -59.329
  O     -151.666      24.568     -60.272
  O     -150.983      26.939     -59.470
  H     -151.186      27.682     -58.876
  H     -154.601      27.797     -58.686
  H     -152.925      28.234     -58.919
  H     -153.394      27.271     -57.538

 6  7  8  9  10  11  12  13  14  15  16  26  30  31  32  33  35 0
 6-311+G(2d,p)
 ****
 37  38 0
 6-311+G(2d,p)
 ****
 1  2  3  4  5  17  18  19  20  21  22  23  24  25 0
 3-21G
 ****
 27  28  29  34  36  39  40  41  42  43  44  45  46 0
 3-21G
 ****


