%nproc=1
%NoSave
%Mem=1900MB
#P OB98/GEN NMR

erre ene a

0 1
  C     1235.051    1165.369    -342.620
  O     1236.294    1164.681    -342.686
  P     1237.499    1165.121    -343.645
  C     1237.749    1162.828    -344.771
  O     1238.385    1163.839    -344.006
  C     1238.113    1161.399    -344.275
  O     1237.165    1160.992    -343.286
  C     1238.107    1160.326    -345.358
  O     1239.247    1160.415    -346.147
  C     1238.008    1159.068    -344.489
  O     1239.300    1158.688    -343.986
  C     1237.073    1159.550    -343.367
  N     1235.722    1159.081    -343.513
  C     1235.451    1157.721    -343.184
  O     1236.409    1156.996    -342.850
  N     1234.189    1157.252    -343.290
  C     1233.252    1158.030    -343.735
  N     1231.968    1157.511    -343.773
  C     1233.480    1159.420    -344.148
  C     1234.714    1159.867    -344.017
  O     1238.286    1166.281    -343.139
  O     1236.791    1165.495    -345.038
  H     1239.717    1159.530    -343.689
  H     1237.317    1166.187    -345.476
  H     1232.669    1160.018    -344.546
  H     1234.983    1160.871    -344.302
  H     1237.479    1159.186    -342.390
  H     1237.588    1158.210    -345.059
  H     1237.218    1160.414    -345.972
  H     1239.084    1161.474    -343.817
  H     1231.849    1156.553    -343.488
  H     1238.085    1162.927    -345.819
  H     1231.181    1158.018    -344.136
  H     1236.662    1162.967    -344.766
  P     1239.193    1159.986    -347.698
  C     1240.929    1158.209    -348.251
  O     1240.659    1159.585    -348.155
  O     1238.469    1160.938    -348.598
  O     1238.409    1158.567    -347.689
  H     1237.918    1158.477    -348.506
  H     1241.770    1158.054    -348.939
  H     1240.075    1157.641    -348.628
  H     1241.215    1157.838    -347.254
  H     1234.413    1164.886    -341.910
  H     1234.585    1165.358    -343.583
  H     1235.219    1166.381    -342.317

 3  4  5  6  7  8  9  10  11  12  13  23  27  28  29  30  32 0
 6-311+G(2d,p)
 ****
 34  35 0
 6-311+G(2d,p)
 ****
 1  2  14  15  16  17  18  19  20  21  22  24  25  26 0
 3-21G
 ****
 31  33  36  37  38  39  40  41  42  43  44  45  46 0
 3-21G
 ****


