%nproc=1
%NoSave
%Mem=1900MB
#P OB98/GEN NMR

erre ene a

0 1
  C      -34.414      59.350     354.170
  O      -33.967      60.662     353.910
  H      -34.115      58.709     353.337
  H      -35.502      59.326     354.255
  H      -33.958      58.965     355.087
  P      -34.332      61.823     354.954
  C      -32.079      63.025     354.586
  O      -33.497      63.122     354.517
  C      -31.432      64.188     353.822
  O      -31.708      63.996     352.412
  C      -31.992      65.552     354.244
  O      -30.977      66.483     354.607
  C      -32.918      65.920     353.087
  O      -33.117      67.307     352.917
  C      -32.278      65.209     351.890
  N      -33.216      64.914     350.809
  C      -33.601      65.971     349.989
  O      -33.201      67.128     350.096
  N      -34.486      65.655     348.993
  C      -35.023      64.423     348.751
  O      -35.811      64.201     347.841
  C      -34.602      63.354     349.670
  C      -33.733      63.644     350.640
  O      -34.206      61.456     356.394
  O      -35.838      62.221     354.580
  H      -33.554      67.432     352.048
  H      -36.447      61.859     355.250
  H      -34.759      66.408     348.382
  H      -35.018      62.368     349.516
  H      -33.400      62.878     351.334
  H      -31.471      65.812     351.472
  H      -33.901      65.476     353.280
  H      -32.590      65.463     355.158
  H      -30.345      64.136     353.958
  H      -31.784      62.070     354.144
  H      -31.760      63.049     355.634
  P      -31.105      67.574     355.762
  C      -28.551      67.757     356.351
  O      -29.728      68.382     355.860
  O      -31.698      67.100     357.048
  O      -32.115      68.670     355.142
  H      -32.615      69.040     355.898
  H      -27.743      68.458     356.338
  H      -28.307      66.920     355.731
  H      -28.717      67.422     357.354

 6  7  8  9  10  11  12  13  14  15  16  26  31  32  33  34  35 0
 6-311+G(2d,p)
 ****
 36  37 0
 6-311+G(2d,p)
 ****
 1  2  3  4  5  17  18  19  20  21  22  23  24  25 0
 3-21G
 ****
 27  28  29  30  38  39  40  41  42  43  44  45 0
 3-21G
 ****


