%nproc=1
%NoSave
%Mem=1900MB
#P OB98/GEN NMR

erre ene a

0 1
  C     -111.769      95.741      64.331
  O     -112.534      96.950      64.365
  P     -113.953      97.077      63.628
  C     -115.099      98.982      64.922
  O     -114.495      98.594      63.690
  C     -115.126     100.501      65.127
  O     -113.805     101.005      65.468
  C     -115.607     101.313      63.913
  O     -116.254     102.470      64.443
  C     -114.294     101.693      63.247
  O     -114.416     102.787      62.343
  C     -113.430     101.971      64.466
  N     -109.468     104.287      62.184
  C     -110.715     104.716      62.465
  N     -111.704     104.058      63.106
  C     -111.289     102.848      63.519
  C     -110.038     102.281      63.320
  C     -109.104     103.050      62.605
  N     -107.844     102.602      62.275
  N     -109.988     101.005      63.854
  C     -111.188     100.807      64.364
  N     -112.011     101.896      64.188
  O     -114.963      96.055      64.061
  O     -113.611      96.874      62.071
  H     -114.623     103.586      62.861
  H     -114.258      96.254      61.679
  H     -110.957     105.719      62.118
  H     -111.529      99.897      64.843
  H     -113.639     102.974      64.875
  H     -113.920     100.831      62.674
  H     -116.278     100.751      63.255
  H     -115.769     100.703      65.996
  H     -114.545      98.513      65.744
  H     -107.274     103.199      61.680
  H     -107.598     101.641      62.465
  H     -116.125      98.586      64.951
  P     -117.725     102.913      63.959
  C     -118.537     103.533      66.309
  O     -118.240     104.011      65.006
  O     -118.676     101.781      63.720
  O     -117.474     103.762      62.627
  H     -118.299     103.808      62.109
  H     -119.494     103.009      66.299
  H     -118.600     104.384      66.991
  H     -117.756     102.853      66.670
  H     -110.863      95.877      64.884
  H     -111.535      95.496      63.316
  H     -112.338      94.947      64.768

 3  4  5  6  7  8  9  10  11  12  22  25  29  30  31  32 0
 6-311+G(2d,p)
 ****
 33  36  37 0
 6-311+G(2d,p)
 ****
 1  2  13  14  15  16  17  18  19  20  21  23  24  26 0
 3-21G
 ****
 27  28  34  35  38  39  40  41  42  43  44  45  46  47  48 0
 3-21G
 ****


