%nproc=1
%NoSave
%Mem=1900MB
#P OB98/GEN NMR

erre ene a

0 1
  C      -67.229    -321.310     158.073
  O      -67.292    -320.016     157.502
  H      -68.244    -321.642     158.302
  H      -66.652    -321.277     159.001
  H      -66.773    -322.014     157.374
  P      -65.907    -319.375     157.007
  C      -63.852    -320.809     156.337
  O      -65.207    -320.478     156.068
  C      -63.200    -321.448     155.110
  O      -63.918    -322.673     154.777
  C      -63.203    -320.556     153.857
  O      -61.995    -320.810     153.128
  C      -64.367    -321.112     153.047
  O      -64.273    -320.792     151.663
  C      -64.231    -322.602     153.368
  N      -66.074    -326.264     150.448
  C      -64.783    -325.779     150.574
  N      -63.837    -326.355     149.801
  N      -64.451    -324.809     151.386
  C      -65.493    -324.347     152.123
  C      -66.812    -324.738     152.087
  C      -67.169    -325.792     151.162
  O      -68.298    -326.254     150.991
  N      -67.568    -324.002     152.969
  C      -66.706    -323.174     153.533
  N      -65.436    -323.342     153.053
  O      -65.017    -319.389     158.337
  O      -66.011    -318.008     156.416
  H      -64.372    -319.821     151.571
  H      -65.093    -318.534     158.803
  H      -66.275    -327.003     149.796
  H      -66.950    -322.430     154.286
  H      -63.412    -323.074     152.811
  H      -65.317    -320.715     153.428
  H      -64.010    -327.138     149.190
  H      -63.295    -319.484     154.063
  H      -62.877    -326.042     149.912
  H      -62.181    -321.747     155.374
  H      -63.819    -321.519     157.172
  H      -63.310    -319.902     156.618
  P      -60.707    -319.919     153.473
  C      -58.481    -320.246     154.785
  O      -59.768    -320.762     154.465
  O      -61.306    -318.783     154.432
  O      -60.027    -319.332     152.277
  H      -60.771    -317.972     154.359
  H      -57.983    -320.919     155.452
  H      -58.587    -319.291     155.255
  H      -57.906    -320.141     153.889

 6  7  8  9  10  11  12  13  14  15  26  29  33  34 0
 6-311+G(2d,p)
 ****
 36  38  39  40  41 0
 6-311+G(2d,p)
 ****
 1  2  3  4  5  16  17  18  19  20  21  22  23  24  25 0
 3-21G
 ****
 27  28  30  31  32  35  37  42  43  44  45  46  47 0
 3-21G
 ****
 48  49 0
 3-21G
 ****


