%nproc=1
%NoSave
%Mem=1900MB
#P OB98/GEN NMR

erre ene a

0 1
  C     -300.028      85.659    -108.333
  O     -301.256      86.011    -108.955
  P     -301.238      86.254    -110.543
  C     -302.693      88.304    -109.896
  O     -302.450      87.263    -110.837
  C     -303.756      89.260    -110.419
  O     -303.282      89.911    -111.612
  C     -305.068      88.596    -110.810
  O     -305.895      88.346    -109.683
  C     -305.678      89.661    -111.710
  O     -306.316      90.669    -110.904
  C     -304.442      90.242    -112.416
  N     -302.888      91.339    -117.110
  C     -302.934      92.137    -115.983
  N     -302.475      93.399    -116.123
  N     -303.391      91.734    -114.827
  C     -303.778      90.437    -114.826
  C     -303.782      89.546    -115.877
  C     -303.324      90.020    -117.165
  O     -303.320      89.379    -118.212
  N     -304.234      88.314    -115.485
  C     -304.467      88.444    -114.195
  N     -304.235      89.724    -113.755
  O     -301.769      84.862    -111.128
  O     -299.913      86.626    -111.112
  H     -306.620      91.370    -111.512
  H     -301.439      84.736    -112.038
  H     -302.511      91.694    -117.971
  H     -304.805      87.646    -113.547
  H     -304.493      91.336    -112.472
  H     -306.441      89.262    -112.387
  H     -301.994      93.723    -116.947
  H     -304.891      87.684    -111.389
  H     -302.466      93.987    -115.299
  H     -303.927      90.031    -109.657
  H     -301.764      88.860    -109.727
  H     -303.009      87.856    -108.948
  P     -306.429      86.840    -109.503
  C     -308.645      87.899    -108.655
  O     -307.623      86.942    -108.442
  O     -305.249      86.129    -108.695
  O     -306.739      86.144    -110.785
  H     -305.250      85.167    -108.871
  H     -308.874      88.008    -109.718
  H     -308.331      88.863    -108.248
  H     -309.547      87.569    -108.135
  H     -300.185      85.528    -107.283
  H     -299.311      86.437    -108.493
  H     -299.663      84.746    -108.755

 3  4  5  6  7  8  9  10  11  12  23  26  30  31  33  0
 6-311+G(2d,p)
 ****
 35  36  37  38 0
 6-311+G(2d,p)
 ****
 1  2  13  14  15  16  17  18  19  20  21  22  24  25  27  28  29 0
 3-21G
 ****
 32  34  39  40  41  42  43  44  45  46  47  48  49 0
 3-21G
 ****


