%nproc=1
%NoSave
%Mem=1900MB
#P OB98/GEN NMR

erre ene a

0 1
  C     -120.732     397.499    -174.180
  O     -122.019     397.638    -174.757
  P     -122.161     398.610    -176.024
  C     -123.173     396.875    -177.681
  O     -122.044     397.670    -177.317
  C     -122.763     395.796    -178.677
  O     -121.840     394.881    -178.059
  C     -123.921     394.942    -179.171
  O     -124.675     395.630    -180.146
  C     -123.183     393.719    -179.707
  O     -122.773     393.922    -181.072
  C     -121.956     393.625    -178.771
  N     -122.037     392.505    -177.845
  C     -121.517     391.292    -178.315
  O     -121.041     391.220    -179.453
  N     -121.585     390.188    -177.498
  C     -122.123     390.289    -176.327
  N     -122.160     389.164    -175.560
  C     -122.707     391.541    -175.807
  C     -122.637     392.598    -176.609
  O     -120.781     399.415    -176.021
  O     -123.351     399.516    -175.987
  H     -123.585     394.169    -181.553
  H     -120.884     400.287    -176.451
  H     -123.155     391.568    -174.819
  H     -123.038     393.555    -176.316
  H     -121.032     393.513    -179.356
  H     -123.808     392.823    -179.697
  H     -124.564     394.640    -178.331
  H     -122.251     396.282    -179.525
  H     -121.760     388.315    -175.950
  H     -123.923     397.517    -178.145
  H     -122.542     389.142    -174.621
  H     -123.599     396.432    -176.779
  P     -126.046     396.311    -179.690
  C     -125.955     398.631    -180.780
  O     -125.719     397.879    -179.608
  O     -126.126     395.902    -178.141
  O     -127.281     395.928    -180.438
  H     -126.983     396.178    -177.767
  H     -125.844     399.693    -180.543
  H     -126.957     398.453    -181.159
  H     -125.215     398.363    -181.548
  H     -120.784     396.826    -173.350
  H     -120.387     398.454    -173.844
  H     -120.053     397.112    -174.911

 3  4  5  6  7  8  9  10  11  12  13  21  23  27  28  29  30  32 0
 6-311+G(2d,p)
 ****
 34  35 0
 6-311+G(2d,p)
 ****
 1  2  14  15  16  17  18  19  20  22  24  25  26 0
 3-21G
 ****
 31  33  36  37  38  39  40  41  42  43  44  45  46 0
 3-21G
 ****


