%nproc=1
%NoSave
%Mem=1900MB
#P OB98/GEN NMR

erre ene a

0 1
  C      317.438     103.299     -98.390
  O      316.411     103.910     -99.152
  H      317.057     102.362     -97.973
  H      317.727     103.956     -97.564
  H      318.309     103.077     -99.009
  P      316.781     105.153    -100.090
  C      315.547     106.866     -98.600
  O      316.797     106.451     -99.149
  C      315.230     108.303     -99.009
  O      313.877     108.627     -98.550
  C      316.176     109.360     -98.404
  O      316.283     110.436     -99.347
  C      315.388     109.794     -97.182
  O      315.897     110.981     -96.621
  C      313.977     109.843     -97.775
  N      312.928     109.923     -96.772
  C      312.545     111.192     -96.354
  O      313.024     112.239     -96.784
  N      311.579     111.229     -95.376
  C      310.980     110.147     -94.802
  O      310.103     110.237     -93.950
  C      311.447     108.831     -95.270
  C      312.377     108.777     -96.217
  O      315.971     105.286    -101.339
  O      318.333     104.936    -100.421
  H      318.426     104.506    -101.295
  H      316.029     111.665     -97.318
  H      311.285     112.147     -95.060
  H      311.005     107.953     -94.816
  H      312.754     107.825     -96.586
  H      313.885     110.680     -98.474
  H      315.454     109.030     -96.400
  H      317.174     108.963     -98.184
  H      315.215     108.367    -100.104
  H      315.624     106.802     -97.509
  H      314.758     106.195     -98.951
  P      317.615     110.713    -100.213
  C      318.863     112.345     -98.650
  O      318.836     111.045     -99.222
  O      317.424     111.745    -101.286
  O      318.011     109.304    -100.855
  H      318.379     109.450    -101.748
  H      319.719     112.437     -98.015
  H      317.974     112.500     -98.075
  H      318.916     113.076     -99.429

 6  7  8  9  10  11  12  13  14  15  16  27  31  32  33  34  35 0
 6-311+G(2d,p)
 ****
 36  37 0
 6-311+G(2d,p)
 ****
 1  2  3  4  5  17  18  19  20  21  22  23  24  25 0
 3-21G
 ****
 26  28  29  30  38  39  40  41  42  43  44  45 0
 3-21G
 ****


