%nproc=1
%NoSave
%Mem=1900MB
#P OB98/GEN NMR

erre ene a

0 1
  C      890.343     397.328     140.812
  O      890.934     396.337     141.632
  H      890.177     398.228     141.408
  H      889.379     396.965     140.444
  H      890.994     397.578     139.969
  P      891.623     395.093     140.896
  C      893.742     395.597     142.316
  O      893.212     395.302     141.029
  C      895.254     395.372     142.333
  O      895.511     393.938     142.407
  C      895.988     395.916     141.090
  O      897.261     396.438     141.501
  C      896.223     394.665     140.268
  O      897.314     394.808     139.362
  C      896.468     393.638     141.370
  N      899.054     389.442     140.431
  C      899.417     390.589     141.110
  N      900.692     390.652     141.560
  N      898.608     391.587     141.323
  C      897.352     391.381     140.841
  C      896.870     390.294     140.148
  C      897.786     389.201     139.899
  O      897.526     388.170     139.284
  N      895.562     390.496     139.771
  C      895.276     391.708     140.220
  N      896.326     392.283     140.873
  O      891.333     395.389     139.349
  O      891.123     393.751     141.308
  H      897.479     393.937     138.947
  H      890.527     394.916     139.069
  H      899.727     388.708     140.273
  H      894.326     392.216     140.079
  H      897.475     393.715     141.803
  H      895.320     394.415     139.691
  H      901.373     389.918     141.455
  H      895.430     396.689     140.550
  H      900.960     391.475     142.097
  H      895.661     395.817     143.249
  H      893.273     394.937     143.052
  H      893.504     396.637     142.570
  P      897.661     397.909     141.020
  C      897.596     398.746     143.487
  O      897.184     398.957     142.147
  O      896.647     398.192     139.815
  O      899.081     398.046     140.587
  H      897.083     398.740     139.136
  H      897.200     399.522     144.108
  H      898.665     398.759     143.538
  H      897.234     397.798     143.826

 6  7  8  9  10  11  12  13  14  15  26  29  33  34 0
 6-311+G(2d,p)
 ****
 36  38  39  40  41 0
 6-311+G(2d,p)
 ****
 1  2  3  4  5  16  17  18  19  20  21  22  23  24  25 0
 3-21G
 ****
 27  28  30  31  32  35  37  42  43  44  45  46  47 0
 3-21G
 ****
 48  49 0
 3-21G
 ****


