%nproc=1
%NoSave
%Mem=1900MB
#P OB98/GEN NMR

erre ene a

0 1
  C      131.031    -292.465    -346.156
  O      129.729    -292.983    -345.976
  H      131.526    -293.017    -346.961
  H      131.603    -292.602    -345.233
  H      131.000    -291.406    -346.419
  P      128.691    -292.089    -345.142
  C      126.783    -292.983    -346.655
  O      127.243    -292.767    -345.330
  C      125.357    -293.541    -346.635
  O      125.392    -294.884    -346.071
  C      124.369    -292.707    -345.809
  O      123.088    -292.725    -346.462
  C      124.254    -293.504    -344.518
  O      123.042    -293.239    -343.826
  C      124.370    -294.923    -345.056
  N      122.399    -297.329    -341.111
  C      121.792    -296.592    -342.107
  N      120.458    -296.423    -342.019
  N      122.438    -296.071    -343.119
  C      123.766    -296.340    -343.102
  C      124.488    -297.039    -342.168
  C      123.765    -297.604    -341.047
  O      124.249    -298.239    -340.118
  N      125.829    -297.037    -342.474
  C      125.914    -296.308    -343.576
  N      124.689    -295.864    -343.994
  O      128.598    -290.750    -346.014
  O      129.079    -291.807    -343.729
  H      122.298    -293.415    -344.435
  H      129.221    -290.084    -345.665
  H      121.855    -297.697    -340.348
  H      126.833    -296.060    -344.091
  H      123.435    -295.277    -345.521
  H      125.095    -293.258    -343.861
  H      119.879    -296.822    -341.295
  H      124.688    -291.673    -345.649
  H      119.985    -295.926    -342.769
  H      125.009    -293.640    -347.676
  H      127.443    -293.709    -347.148
  H      126.814    -292.047    -347.212
  P      122.719    -291.508    -347.438
  C      121.620    -293.256    -349.018
  O      121.538    -291.973    -348.415
  O      123.992    -291.434    -348.411
  O      122.498    -290.211    -346.731
  H      124.167    -290.501    -348.659
  H      120.762    -293.415    -349.637
  H      121.654    -294.007    -348.256
  H      122.506    -293.313    -349.615

 6  7  8  9  10  11  12  13  14  15  26  29  33  34 0
 6-311+G(2d,p)
 ****
 36  38  39  40  41 0
 6-311+G(2d,p)
 ****
 1  2  3  4  5  16  17  18  19  20  21  22  23  24  25 0
 3-21G
 ****
 27  28  30  31  32  35  37  42  43  44  45  46  47 0
 3-21G
 ****
 48  49 0
 3-21G
 ****


