%nproc=1
%NoSave
%Mem=1900MB
#P OB98/GEN NMR

erre ene a

0 1
  C      -96.688     103.244    -196.691
  O      -95.852     103.608    -195.610
  P      -94.443     104.319    -195.883
  C      -92.479     102.842    -195.131
  O      -93.358     103.181    -196.197
  C      -93.273     102.461    -193.884
  O      -94.297     101.491    -194.203
  C      -92.440     101.810    -192.793
  O      -91.607     102.744    -192.130
  C      -93.527     101.188    -191.926
  O      -94.110     102.169    -191.056
  C      -94.552     100.738    -192.991
  N      -94.506      99.306    -193.237
  C      -94.755      98.486    -192.131
  O      -94.917      98.977    -191.013
  N      -94.805      97.127    -192.323
  C      -94.508      96.628    -193.481
  N      -94.633      95.283    -193.628
  C      -94.081      97.454    -194.629
  C      -94.124      98.772    -194.445
  O      -94.024     105.316    -194.855
  O      -94.635     105.025    -197.309
  H      -94.349     105.956    -197.239
  H      -93.373     102.559    -190.545
  H      -93.778      96.985    -195.553
  H      -93.849      99.457    -195.240
  H      -95.566     101.012    -192.680
  H      -93.146     100.379    -191.295
  H      -91.822     101.014    -193.227
  H      -93.764     103.367    -193.504
  H      -94.946      94.752    -192.823
  H      -91.844     103.707    -194.913
  H      -94.745      94.841    -194.536
  H      -91.835     102.014    -195.445
  P      -90.222     102.189    -191.539
  C      -90.079     101.839    -188.977
  O      -90.564     101.357    -190.215
  O      -89.504     103.510    -190.985
  O      -89.362     101.480    -192.533
  H      -88.542     103.446    -191.133
  H      -90.666     101.389    -188.173
  H      -90.164     102.926    -188.910
  H      -89.033     101.545    -188.857
  H      -97.578     102.785    -196.315
  H      -96.171     102.554    -197.325
  H      -96.947     104.118    -197.252

 3  4  5  6  7  8  9  10  11  12  13  24  27  28  29  30  32 0
 6-311+G(2d,p)
 ****
 34  35 0
 6-311+G(2d,p)
 ****
 1  2  14  15  16  17  18  19  20  21  22  23  25  26 0
 3-21G
 ****
 31  33  36  37  38  39  40  41  42  43  44  45  46 0
 3-21G
 ****


