%nproc=1
%NoSave
%Mem=1900MB
#P OB98/GEN NMR

erre ene a

0 1
  C      555.990    -301.594    -319.518
  O      557.358    -301.776    -319.193
  H      555.630    -300.690    -319.034
  H      555.399    -302.446    -319.167
  H      555.868    -301.485    -320.602
  P      558.121    -303.051    -319.794
  C      558.869    -303.845    -317.448
  O      558.133    -304.147    -318.627
  C      559.108    -305.104    -316.629
  O      557.881    -305.522    -316.000
  C      559.607    -306.289    -317.449
  O      560.999    -306.186    -317.674
  C      559.235    -307.437    -316.524
  O      560.175    -307.516    -315.437
  C      557.853    -306.980    -316.010
  N      553.766    -309.976    -316.177
  C      554.730    -309.841    -315.191
  N      554.607    -310.662    -314.115
  N      555.731    -309.002    -315.262
  C      555.759    -308.309    -316.418
  C      554.869    -308.365    -317.475
  C      553.744    -309.258    -317.350
  O      552.850    -309.393    -318.200
  N      555.270    -307.565    -318.514
  C      556.377    -306.984    -318.072
  N      556.714    -307.418    -316.809
  O      559.471    -302.799    -320.391
  O      557.087    -303.650    -320.860
  H      560.110    -308.425    -315.087
  H      557.258    -303.297    -321.752
  H      553.031    -310.660    -316.063
  H      556.956    -306.254    -318.618
  H      557.666    -307.313    -314.976
  H      559.228    -308.409    -317.025
  H      554.042    -311.491    -314.141
  H      559.044    -306.402    -318.393
  H      555.332    -310.607    -313.407
  H      559.814    -304.855    -315.828
  H      558.295    -303.117    -316.871
  H      559.837    -303.392    -317.716
  P      561.780    -307.268    -318.578
  C      563.404    -307.735    -316.602
  O      562.454    -308.274    -317.514
  O      562.726    -306.692    -319.567
  O      560.626    -308.163    -319.217
  H      560.281    -307.811    -320.074
  H      563.764    -308.513    -315.961
  H      562.939    -306.973    -316.012
  H      564.223    -307.314    -317.147

 6  7  8  9  10  11  12  13  14  15  26  29  33  34 0
 6-311+G(2d,p)
 ****
 36  38  39  40  41 0
 6-311+G(2d,p)
 ****
 1  2  3  4  5  16  17  18  19  20  21  22  23  24  25 0
 3-21G
 ****
 27  28  30  31  32  35  37  42  43  44  45  46  47 0
 3-21G
 ****
 48  49 0
 3-21G
 ****


