%nproc=1
%NoSave
%Mem=1900MB
#P OB98/GEN NMR

erre ene a

0 1
  C      -35.782     -57.137     -44.759
  O      -35.643     -58.145     -43.743
  P      -36.933     -58.999     -43.307
  C      -36.587     -58.779     -40.723
  O      -36.664     -59.630     -41.857
  C      -35.549     -59.314     -39.732
  O      -34.257     -58.712     -39.977
  C      -35.858     -59.010     -38.274
  O      -36.866     -59.862     -37.757
  C      -34.495     -59.223     -37.626
  O      -34.263     -60.617     -37.360
  C      -33.540     -58.712     -38.723
  N      -32.992     -57.393     -38.422
  C      -31.764     -57.367     -37.771
  O      -31.176     -58.382     -37.400
  N      -31.245     -56.125     -37.523
  C      -31.853     -54.933     -37.796
  O      -31.345     -53.851     -37.533
  C      -33.185     -55.024     -38.411
  C      -33.687     -56.230     -38.686
  O      -36.813     -60.288     -44.255
  O      -38.251     -58.325     -43.495
  H      -33.362     -60.684     -36.988
  H      -37.702     -60.654     -44.420
  H      -30.342     -56.084     -37.078
  H      -33.711     -54.102     -38.622
  H      -34.669     -56.314     -39.141
  H      -32.707     -59.413     -38.854
  H      -34.398     -58.694     -36.673
  H      -36.147     -57.959     -38.164
  H      -35.454     -60.397     -39.889
  H      -37.564     -58.742     -40.232
  H      -36.321     -57.770     -41.052
  P      -37.872     -59.220     -36.682
  C      -37.406     -61.072     -34.897
  O      -38.333     -60.442     -35.753
  O      -39.139     -58.898     -37.606
  O      -37.298     -58.036     -35.978
  H      -39.249     -59.551     -38.318
  H      -36.662     -60.366     -34.519
  H      -36.901     -61.875     -35.441
  H      -37.946     -61.503     -34.050
  H      -34.835     -56.667     -44.927
  H      -36.492     -56.404     -44.439
  H      -36.122     -57.590     -45.667

 3  4  5  6  7  8  9  10  11  12  13  23  28  29  30  31  32 0
 6-311+G(2d,p)
 ****
 33  34 0
 6-311+G(2d,p)
 ****
 1  2  14  15  16  17  18  19  20  21  22  24  25  26 0
 3-21G
 ****
 27  35  36  37  38  39  40  41  42  43  44  45 0
 3-21G
 ****


