%nproc=1
%NoSave
%Mem=1900MB
#P OB98/GEN NMR

erre ene a

0 1
  C      -38.922    -513.422    -333.734
  O      -39.251    -513.827    -332.417
  H      -37.954    -512.923    -333.719
  H      -39.672    -512.723    -334.108
  H      -38.859    -514.293    -334.394
  P      -40.609    -514.665    -332.234
  C      -39.416    -516.847    -331.490
  O      -40.223    -516.207    -332.469
  C      -39.075    -518.274    -331.912
  O      -38.424    -518.241    -333.221
  C      -38.133    -519.011    -330.949
  O      -38.503    -520.393    -330.932
  C      -36.778    -518.895    -331.644
  O      -35.859    -519.893    -331.210
  C      -37.216    -519.016    -333.104
  N      -32.332    -519.424    -334.256
  C      -33.086    -520.068    -333.296
  N      -32.439    -520.972    -332.522
  N      -34.360    -519.860    -333.108
  C      -34.887    -518.960    -333.977
  C      -34.252    -518.250    -334.969
  C      -32.830    -518.474    -335.145
  O      -32.112    -517.916    -335.968
  N      -35.130    -517.413    -335.611
  C      -36.285    -517.623    -335.016
  N      -36.192    -518.557    -334.021
  O      -41.441    -514.281    -333.549
  O      -41.372    -514.380    -330.985
  H      -35.005    -519.722    -331.650
  H      -42.040    -513.532    -333.363
  H      -31.351    -519.615    -334.344
  H      -37.228    -517.126    -335.271
  H      -37.449    -520.046    -333.388
  H      -36.337    -517.905    -331.445
  H      -31.467    -521.214    -332.638
  H      -38.125    -518.616    -329.924
  H      -32.985    -521.486    -331.837
  H      -40.016    -518.826    -332.046
  H      -39.964    -516.873    -330.542
  H      -38.501    -516.266    -331.350
  P      -39.348    -520.927    -329.679
  C      -41.656    -520.971    -330.880
  O      -40.861    -520.430    -329.839
  O      -38.798    -520.036    -328.468
  O      -39.176    -522.396    -329.402
  H      -38.883    -520.519    -327.630
  H      -42.633    -520.535    -330.846
  H      -41.734    -522.031    -330.755
  H      -41.202    -520.755    -331.825

 6  7  8  9  10  11  12  13  14  15  26  29  33  34 0
 6-311+G(2d,p)
 ****
 36  38  39  40  41 0
 6-311+G(2d,p)
 ****
 1  2  3  4  5  16  17  18  19  20  21  22  23  24  25 0
 3-21G
 ****
 27  28  30  31  32  35  37  42  43  44  45  46  47 0
 3-21G
 ****
 48  49 0
 3-21G
 ****


