%nproc=1
%NoSave
%Mem=1900MB
#P OB98/GEN NMR

erre ene a

0 1
  C       -6.061     371.260     501.905
  O       -7.098     371.383     500.956
  H       -5.282     371.992     501.673
  H       -5.625     370.257     501.858
  H       -6.439     371.453     502.911
  P       -8.368     370.410     501.127
  C      -10.370     371.853     500.300
  O       -9.396     370.870     499.977
  C       -9.800     373.258     500.091
  O       -9.501     373.446     498.685
  C      -10.759     374.370     500.516
  O      -10.031     375.380     501.222
  C      -11.302     374.917     499.208
  O      -11.718     376.277     499.319
  C      -10.133     374.663     498.248
  N      -10.583     374.560     496.861
  C      -11.017     375.740     496.249
  O      -11.025     376.800     496.878
  N      -11.483     375.684     494.961
  C      -11.570     374.539     494.356
  N      -12.063     374.546     493.088
  C      -11.167     373.264     494.979
  C      -10.684     373.348     496.217
  O       -9.045     370.938     502.473
  O       -8.054     368.951     501.133
  H      -12.112     376.546     498.462
  H       -9.717     370.298     502.814
  H      -11.275     372.333     494.438
  H      -10.365     372.459     496.755
  H       -9.391     375.473     498.317
  H      -12.173     374.325     498.901
  H      -11.568     374.015     501.152
  H       -8.845     373.330     500.625
  H      -12.338     375.442     492.697
  H      -10.667     371.732     501.347
  H      -12.199     373.715     492.535
  H      -11.249     371.714     499.662
  P      -10.331     375.493     502.794
  C       -8.247     376.913     503.394
  O       -9.663     376.855     503.319
  O       -9.419     374.346     503.435
  O      -11.776     375.335     503.140
  H       -9.953     373.552     503.621
  H       -7.948     377.874     503.758
  H       -7.832     376.755     502.421
  H       -7.894     376.154     504.060

 6  7  8  9  10  11  12  13  14  15  16  26  30  31  32  33  35 0
 6-311+G(2d,p)
 ****
 37  38 0
 6-311+G(2d,p)
 ****
 1  2  3  4  5  17  18  19  20  21  22  23  24  25 0
 3-21G
 ****
 27  28  29  34  36  39  40  41  42  43  44  45  46 0
 3-21G
 ****


