%nproc=1
%NoSave
%Mem=1900MB
#P OB98/GEN NMR

erre ene a

0 1
  C     -492.976     642.448      65.987
  O     -492.785     641.463      64.993
  H     -494.051     642.647      66.078
  H     -492.471     643.379      65.706
  H     -492.605     642.096      66.952
  P     -491.264     641.048      64.677
  C     -490.039     638.820      65.118
  O     -491.269     639.440      64.736
  C     -490.315     637.641      66.054
  O     -490.828     638.162      67.314
  C     -491.340     636.644      65.515
  O     -490.943     635.318      65.865
  C     -492.627     637.007      66.247
  O     -493.530     635.920      66.342
  C     -492.085     637.503      67.585
  N     -494.584     638.469      71.931
  C     -493.632     637.559      71.616
  N     -493.000     637.382      70.430
  C     -493.414     638.297      69.535
  C     -494.372     639.289      69.707
  C     -494.985     639.353      70.979
  N     -495.962     640.257      71.301
  N     -494.544     640.007      68.542
  C     -493.700     639.471      67.674
  N     -493.007     638.424      68.230
  O     -490.226     641.723      65.513
  O     -491.173     641.336      63.103
  H     -493.749     635.625      65.432
  H     -491.963     641.016      62.634
  H     -493.342     636.885      72.419
  H     -493.565     639.791      66.642
  H     -491.888     636.680      68.293
  H     -493.133     637.833      65.717
  H     -491.460     636.716      64.427
  H     -489.359     637.146      66.285
  H     -489.388     639.549      65.615
  H     -496.336     640.249      72.238
  H     -496.266     640.939      70.604
  H     -489.547     638.467      64.201
  P     -490.275     634.390      64.739
  C     -489.327     631.988      64.545
  O     -489.875     632.982      65.407
  O     -489.215     635.035      63.916
  O     -491.530     633.990      63.834
  H     -491.257     633.956      62.899
  H     -489.106     631.107      65.111
  H     -488.428     632.359      64.098
  H     -490.035     631.751      63.778

 6  7  8  9  10  11  12  13  14  15  25  28  32  33  34  35 0
 6-311+G(2d,p)
 ****
 36  39  40 0
 6-311+G(2d,p)
 ****
 1  2  3  4  5  16  17  18  19  20  21  22  23  24 0
 3-21G
 ****
 26  27  29  30  31  37  38  41  42  43  44  45  46  47 0
 3-21G
 ****
 48 0
 3-21G
 ****


