%nproc=1
%NoSave
%Mem=1900MB
#P OB98/GEN NMR

erre ene a

0 1
  C      -88.634    -199.573    -199.957
  O      -88.737    -199.798    -201.354
  P      -88.406    -201.279    -201.881
  C      -90.238    -201.270    -203.747
  O      -88.854    -201.320    -203.420
  C      -90.415    -201.449    -205.255
  O      -90.288    -200.183    -205.931
  C      -89.395    -202.381    -205.897
  O      -89.773    -203.734    -205.717
  C      -89.436    -201.920    -207.352
  O      -90.556    -202.495    -208.043
  C      -89.605    -200.399    -207.200
  N      -85.935    -198.606    -210.179
  C      -86.973    -199.474    -210.468
  N      -87.068    -199.883    -211.753
  N      -87.838    -199.895    -209.587
  C      -87.613    -199.412    -208.340
  C      -86.610    -198.560    -207.927
  C      -85.689    -198.066    -208.927
  O      -84.817    -197.220    -208.735
  N      -86.690    -198.315    -206.578
  C      -87.753    -198.985    -206.193
  N      -88.359    -199.651    -207.223
  O      -89.488    -202.181    -201.132
  O      -87.002    -201.740    -201.639
  H      -90.619    -202.109    -208.938
  H      -89.100    -202.611    -200.345
  H      -85.307    -198.303    -210.903
  H      -88.138    -199.006    -205.179
  H      -90.246    -199.975    -207.983
  H      -88.540    -202.213    -207.904
  H      -86.424    -199.620    -212.483
  H      -88.395    -202.201    -205.481
  H      -87.823    -200.520    -211.986
  H      -91.437    -201.820    -205.432
  H      -90.644    -200.301    -203.451
  H      -90.763    -202.059    -203.198
  P      -88.605    -204.836    -205.729
  C      -90.032    -206.271    -204.092
  O      -89.266    -206.225    -205.283
  O      -87.702    -204.422    -204.468
  O      -87.803    -204.878    -206.982
  H      -86.763    -204.596    -204.669
  H      -90.797    -207.044    -204.194
  H      -90.515    -205.311    -203.885
  H      -89.373    -206.528    -203.257
  H      -88.879    -198.554    -199.741
  H      -87.634    -199.775    -199.636
  H      -89.312    -200.220    -199.441

 3  4  5  6  7  8  9  10  11  12  23  26  30  31 0
 6-311+G(2d,p)
 ****
 33  35  36  37  38 0
 6-311+G(2d,p)
 ****
 1  2  13  14  15  16  17  18  19  20  21  22  24  25 0
 3-21G
 ****
 27  28  29  32  34  39  40  41  42  43  44  45  46  47  48  49 0
 3-21G
 ****


