%nproc=1
%NoSave
%Mem=1900MB
#P OB98/GEN NMR

erre ene a

0 1
  C      354.717     441.421    -284.663
  O      354.629     440.070    -284.199
  P      355.931     439.136    -284.234
  C      354.579     436.942    -284.497
  O      355.543     437.664    -283.723
  C      354.429     435.516    -283.944
  O      355.718     434.880    -283.761
  C      353.778     435.481    -282.566
  O      352.412     435.824    -282.496
  C      354.182     434.109    -282.062
  O      353.314     433.092    -282.540
  C      355.599     433.957    -282.659
  N      356.661     434.162    -281.673
  C      356.505     433.500    -280.459
  O      355.525     432.809    -280.188
  N      357.511     433.687    -279.549
  C      358.611     434.477    -279.717
  O      359.472     434.628    -278.857
  C      358.709     435.168    -281.007
  C      357.745     434.986    -281.916
  O      357.158     439.719    -283.610
  O      356.159     438.907    -285.808
  H      352.449     433.204    -282.094
  H      357.119     438.952    -285.979
  H      357.420     433.209    -278.665
  H      359.567     435.814    -281.176
  H      357.795     435.488    -282.878
  H      355.729     432.950    -283.082
  H      354.148     434.059    -280.964
  H      354.303     436.222    -281.933
  H      353.864     434.921    -284.666
  H      354.897     436.912    -285.538
  H      353.627     437.481    -284.472
  P      351.812     436.833    -281.399
  C      349.453     435.936    -280.787
  O      350.213     436.850    -281.548
  O      352.502     438.146    -281.224
  O      352.003     435.970    -280.048
  H      352.178     436.596    -279.311
  H      348.393     436.082    -281.023
  H      349.606     436.118    -279.720
  H      349.736     434.908    -281.034
  H      353.762     441.894    -284.568
  H      355.017     441.427    -285.690
  H      355.438     441.953    -284.078

 3  4  5  6  7  8  9  10  11  12  13  23  28  29  30  31  32 0
 6-311+G(2d,p)
 ****
 33  34 0
 6-311+G(2d,p)
 ****
 1  2  14  15  16  17  18  19  20  21  22  24  25  26  27 0
 3-21G
 ****
 35  36  37  38  39  40  41  42  43  44  45 0
 3-21G
 ****


