%nproc=1
%NoSave
%Mem=1900MB
#P OB98/GEN NMR

erre ene a

0 1
  C      543.928    -708.070     191.339
  O      544.258    -707.060     192.302
  P      543.805    -705.521     192.163
  C      543.052    -704.917     194.572
  O      544.073    -704.784     193.562
  C      543.679    -704.978     195.957
  O      544.469    -706.190     196.114
  C      544.656    -703.857     196.291
  O      544.004    -702.614     196.530
  C      545.371    -704.428     197.512
  O      544.637    -704.189     198.719
  C      545.392    -705.945     197.206
  N      546.713    -706.448     196.878
  C      547.319    -707.288     197.838
  O      546.761    -707.506     198.906
  N      548.531    -707.846     197.551
  C      549.154    -707.504     196.452
  N      550.356    -708.095     196.203
  C      548.626    -706.509     195.489
  C      547.412    -706.042     195.747
  O      542.416    -705.346     191.640
  O      544.886    -704.860     191.166
  H      544.466    -704.095     190.721
  H      543.801    -704.678     198.641
  H      549.197    -706.238     194.607
  H      546.929    -705.327     195.097
  H      544.989    -706.517     198.057
  H      546.375    -703.997     197.650
  H      545.371    -703.748     195.472
  H      542.874    -705.004     196.700
  H      550.692    -708.773     196.877
  H      542.492    -705.840     194.383
  H      550.907    -707.917     195.372
  H      542.362    -704.075     194.481
  P      544.786    -701.293     196.094
  C      542.699    -700.066     195.112
  O      543.712    -700.078     196.086
  O      545.090    -701.517     194.545
  O      546.042    -701.018     196.861
  H      545.975    -701.185     194.319
  H      541.840    -699.520     195.508
  H      542.395    -701.085     194.843
  H      543.060    -699.549     194.217
  H      544.339    -709.008     191.650
  H      544.335    -707.801     190.387
  H      542.864    -708.155     191.261

 3  4  5  6  7  8  9  10  11  12  13  24  27  28  29  30  32 0
 6-311+G(2d,p)
 ****
 34  35 0
 6-311+G(2d,p)
 ****
 1  2  14  15  16  17  18  19  20  21  22  23  25  26 0
 3-21G
 ****
 31  33  36  37  38  39  40  41  42  43  44  45  46 0
 3-21G
 ****


