%nproc=1
%NoSave
%Mem=1900MB
#P OB98/GEN NMR

erre ene a

0 1
  C     -526.656      21.623    -899.060
  O     -527.516      21.116    -898.070
  H     -526.887      22.685    -899.220
  H     -526.796      21.086    -900.000
  H     -525.612      21.528    -898.730
  P     -527.368      19.557    -897.700
  C     -527.291      19.837    -895.150
  O     -526.544      19.544    -896.310
  C     -526.646      20.996    -894.370
  O     -526.668      22.175    -895.230
  C     -527.370      21.357    -893.080
  O     -526.425      21.699    -892.070
  C     -528.188      22.585    -893.460
  O     -528.488      23.405    -892.320
  C     -527.288      23.244    -894.510
  N     -528.773      28.037    -895.450
  C     -527.902      27.520    -894.570
  N     -527.552      26.233    -894.380
  C     -528.174      25.432    -895.290
  C     -529.091      25.815    -896.260
  C     -529.399      27.187    -896.310
  N     -530.298      27.724    -897.210
  N     -529.517      24.708    -896.960
  C     -528.887      23.692    -896.430
  N     -528.064      24.078    -895.420
  O     -526.809      18.696    -898.790
  O     -528.846      19.188    -897.230
  H     -528.891      22.843    -891.640
  H     -529.221      19.872    -896.640
  H     -527.425      28.239    -893.890
  H     -529.006      22.648    -896.740
  H     -526.531      23.888    -894.050
  H     -529.149      22.263    -893.910
  H     -528.013      20.535    -892.710
  H     -525.589      20.750    -894.180
  H     -527.336      18.945    -894.490
  H     -530.450      28.716    -897.210
  H     -530.756      27.110    -897.870
  H     -528.316      20.087    -895.440
  P     -525.464      20.564    -891.500
  C     -523.380      22.086    -891.690
  O     -523.964      20.828    -892.040
  O     -525.957      19.150    -891.630
  O     -525.339      20.965    -889.950
  H     -525.303      20.132    -889.410
  H     -522.393      22.147    -892.100
  H     -523.330      22.172    -890.625
  H     -523.980      22.880    -892.084

 6  7  8  9  10  11  12  13  14  15  25  28  32  33  34  35 0
 6-311+G(2d,p)
 ****
 36  39  40 0
 6-311+G(2d,p)
 ****
 1  2  3  4  5  16  17  18  19  20  21  22  23  24 0
 3-21G
 ****
 26  27  29  30  31  37  38  41  42  43  44  45  46  47 0
 3-21G
 ****
 48 0
 3-21G
 ****


