%nproc=1
%NoSave
%Mem=1900MB
#P OB98/GEN NMR

erre ene a

0 1
  C      330.693    -148.671     228.634
  O      330.039    -149.209     227.483
  P      328.474    -149.547     227.558
  C      328.763    -151.905     228.564
  O      328.224    -150.604     228.743
  C      328.450    -152.804     229.770
  O      327.022    -152.789     230.034
  C      328.877    -154.263     229.560
  O      329.664    -154.777     230.635
  C      327.562    -154.982     229.295
  O      327.625    -156.369     229.588
  C      326.553    -154.149     230.096
  N      325.192    -154.296     229.577
  C      324.364    -155.185     230.249
  O      324.741    -155.889     231.184
  N      323.083    -155.290     229.772
  C      322.591    -154.667     228.663
  O      321.449    -154.829     228.246
  C      323.533    -153.786     227.953
  C      324.771    -153.643     228.439
  O      327.820    -149.890     226.261
  O      327.849    -148.199     228.169
  H      327.852    -156.476     230.538
  H      326.993    -148.037     227.722
  H      322.464    -155.918     230.260
  H      323.187    -153.295     227.059
  H      325.490    -153.016     227.932
  H      326.536    -154.459     231.147
  H      327.327    -154.887     228.229
  H      329.526    -154.366     228.686
  H      328.963    -152.376     230.639
  H      329.848    -151.835     228.448
  H      328.380    -152.331     227.632
  P      331.258    -154.879     230.620
  C      331.669    -157.374     230.043
  O      331.679    -156.033     229.592
  O      331.919    -154.960     231.957
  O      331.699    -153.533     229.869
  H      332.490    -153.166     230.305
  H      332.309    -157.966     229.383
  H      330.649    -157.768     229.989
  H      332.046    -157.453     231.067
  H      331.727    -148.506     228.412
  H      330.609    -149.361     229.447
  H      330.233    -147.743     228.904

 3  4  5  6  7  8  9  10  11  12  13  23  28  29  30  31  32 0
 6-311+G(2d,p)
 ****
 33  34 0
 6-311+G(2d,p)
 ****
 1  2  14  15  16  17  18  19  20  21  22  24  25  26  27 0
 3-21G
 ****
 35  36  37  38  39  40  41  42  43  44  45 0
 3-21G
 ****


