%nproc=1
%NoSave
%Mem=1900MB
#P OB98/GEN NMR

erre ene a

0 1
  C      527.725     524.178     227.503
  O      528.648     525.257     227.361
  P      530.219     525.089     227.156
  C      531.139     524.418     229.522
  O      530.751     524.019     228.212
  C      531.927     523.346     230.288
  O      531.059     522.214     230.565
  C      533.081     522.809     229.431
  O      534.305     523.505     229.358
  C      533.210     521.342     229.829
  O      534.194     521.143     230.839
  C      531.807     520.995     230.355
  N      530.276     516.204     229.393
  C      531.102     516.674     230.404
  N      531.627     515.740     231.232
  N      531.393     517.935     230.571
  C      530.869     518.746     229.613
  C      530.064     518.403     228.560
  C      529.697     517.006     228.414
  O      528.956     516.545     227.541
  N      529.751     519.490     227.786
  C      530.388     520.497     228.349
  N      531.078     520.096     229.480
  O      530.998     526.357     227.030
  O      530.326     524.315     225.737
  H      533.863     521.541     231.665
  H      531.151     524.627     225.308
  H      530.065     515.230     229.323
  H      530.385     521.518     228.009
  H      531.882     520.497     231.325
  H      533.519     520.736     228.972
  H      531.531     514.755     231.088
  H      532.710     522.788     228.379
  H      532.389     516.057     231.835
  H      532.260     523.716     231.262
  H      530.210     524.675     230.053
  H      531.722     525.343     229.470
  P      534.560     524.913     228.648
  C      536.036     524.207     226.669
  O      534.756     524.659     227.078
  O      536.037     525.315     229.122
  O      533.577     525.991     228.999
  H      536.190     526.277     228.962
  H      536.144     524.362     225.592
  H      536.140     523.136     226.899
  H      536.824     524.756     227.192
  H      526.736     524.568     227.627
  H      527.988     523.594     228.360
  H      527.759     523.562     226.628

 3  4  5  6  7  8  9  10  11  12  23  26  30  31 0
 6-311+G(2d,p)
 ****
 33  35  36  37  38 0
 6-311+G(2d,p)
 ****
 1  2  13  14  15  16  17  18  19  20  21  22  24  25 0
 3-21G
 ****
 27  28  29  32  34  39  40  41  42  43  44  45  46  47  48  49 0
 3-21G
 ****


