%nproc=1
%NoSave
%Mem=1900MB
#P OB98/GEN NMR

erre ene a

0 1
  C       17.911    -370.453    -397.963
  O       17.351    -369.762    -399.062
  H       19.002    -370.375    -397.982
  H       17.545    -369.999    -397.037
  H       17.611    -371.504    -397.982
  P       17.759    -370.278    -400.527
  C       20.037    -370.708    -401.697
  O       19.343    -370.058    -400.642
  C       21.276    -369.901    -402.071
  O       22.349    -370.174    -401.138
  C       21.840    -370.218    -403.453
  O       21.139    -369.549    -404.483
  C       23.253    -369.676    -403.310
  O       23.237    -368.242    -403.417
  C       23.601    -370.097    -401.872
  N       27.764    -372.733    -403.266
  C       27.369    -371.468    -403.524
  N       26.247    -370.843    -403.116
  C       25.487    -371.662    -402.375
  C       25.753    -372.980    -402.037
  C       26.960    -373.520    -402.509
  N       27.356    -374.816    -402.265
  N       24.717    -373.514    -401.288
  C       23.863    -372.519    -401.149
  N       24.276    -371.386    -401.797
  O       17.164    -369.156    -401.501
  O       17.293    -371.650    -400.881
  H       22.858    -368.032    -404.295
  H       17.064    -369.515    -402.401
  H       28.047    -370.880    -404.131
  H       22.934    -372.573    -400.596
  H       24.241    -369.365    -401.364
  H       23.935    -370.051    -404.073
  H       21.884    -371.300    -403.630
  H       21.027    -368.835    -401.989
  H       19.381    -370.784    -402.567
  H       28.141    -375.158    -402.798
  H       26.695    -375.444    -401.833
  H       20.322    -371.714    -401.374
  P       20.982    -370.314    -405.889
  C       22.644    -371.505    -407.497
  O       22.475    -370.665    -406.359
  O       20.536    -369.150    -406.889
  O       20.019    -371.454    -405.877
  H       20.025    -369.510    -407.636
  H       23.688    -371.646    -407.684
  H       22.187    -371.047    -408.349
  H       22.183    -372.453    -407.312

 6  7  8  9  10  11  12  13  14  15  25  28  32  33  34  35 0
 6-311+G(2d,p)
 ****
 36  39  40 0
 6-311+G(2d,p)
 ****
 1  2  3  4  5  16  17  18  19  20  21  22  23  24 0
 3-21G
 ****
 26  27  29  30  31  37  38  41  42  43  44  45  46  47 0
 3-21G
 ****
 48 0
 3-21G
 ****


