%nproc=1
%NoSave
%Mem=1900MB
#P OB98/GEN NMR

erre ene a

0 1
  C      -30.631       2.321      -7.900
  O      -30.238       2.113      -6.561
  H      -30.376       3.345      -8.186
  H      -31.712       2.192      -7.996
  H      -30.112       1.628      -8.567
  P      -30.372       0.625      -5.974
  C      -30.990       1.206      -3.521
  O      -30.003       0.712      -4.413
  C      -30.333       1.780      -2.265
  O      -29.720       3.053      -2.600
  C      -31.311       2.018      -1.113
  O      -30.658       1.687       0.116
  C      -31.569       3.512      -1.162
  O      -31.972       4.043       0.100
  C      -30.227       4.042      -1.683
  N      -30.378       5.346      -2.322
  C      -29.875       6.448      -1.625
  O      -29.343       6.295      -0.524
  N      -30.034       7.700      -2.160
  C      -30.716       7.850      -3.253
  N      -30.865       9.119      -3.718
  C      -31.324       6.723      -3.986
  C      -31.111       5.511      -3.474
  O      -29.117      -0.137      -6.605
  O      -31.663      -0.063      -6.268
  H      -31.952       5.023       0.042
  H      -29.315      -1.081      -6.758
  H      -31.905       6.900      -4.879
  H      -31.525       4.625      -3.939
  H      -29.504       4.134      -0.862
  H      -32.367       3.723      -1.884
  H      -32.233       1.437      -1.203
  H      -29.523       1.108      -1.959
  H      -30.449       9.867      -3.176
  H      -31.651       0.383      -3.230
  H      -31.412       9.357      -4.531
  H      -31.585       1.974      -4.025
  P      -31.256       0.448       0.939
  C      -29.733       0.667       3.032
  O      -30.105      -0.113       1.904
  O      -31.412      -0.693      -0.171
  O      -32.556       0.746       1.610
  H      -32.355      -0.834      -0.374
  H      -28.959       0.164       3.574
  H      -30.583       0.803       3.668
  H      -29.377       1.621       2.704

 6  7  8  9  10  11  12  13  14  15  16  26  30  31  32  33  35 0
 6-311+G(2d,p)
 ****
 37  38 0
 6-311+G(2d,p)
 ****
 1  2  3  4  5  17  18  19  20  21  22  23  24  25 0
 3-21G
 ****
 27  28  29  34  36  39  40  41  42  43  44  45  46 0
 3-21G
 ****


