%nproc=1
%NoSave
%Mem=1900MB
#P OB98/GEN NMR

erre ene a

0 1
  C      -11.581    -471.673     205.012
  O      -12.075    -470.453     205.542
  P      -12.258    -470.331     207.132
  C      -10.000    -469.021     207.154
  O      -10.799    -470.036     207.741
  C       -9.951    -467.779     208.051
  O       -9.382    -468.165     209.332
  C       -9.097    -466.620     207.515
  O       -9.710    -465.408     207.967
  C       -7.763    -466.815     208.214
  O       -6.983    -465.622     208.252
  C       -8.233    -467.316     209.576
  N       -4.586    -467.111     213.085
  C       -5.372    -466.097     212.570
  N       -5.201    -464.863     213.106
  N       -6.254    -466.271     211.610
  C       -6.316    -467.562     211.184
  C       -5.565    -468.638     211.582
  C       -4.628    -468.439     212.667
  O       -3.969    -469.318     213.210
  N       -5.859    -469.762     210.850
  C       -6.848    -469.389     210.060
  N       -7.193    -468.069     210.257
  O      -12.556    -471.842     207.573
  O      -13.316    -469.377     207.598
  H       -6.211    -465.791     208.836
  H      -13.509    -472.013     207.625
  H       -3.941    -466.915     213.837
  H       -7.350    -470.005     209.342
  H       -8.546    -466.500     210.245
  H       -7.184    -467.582     207.686
  H       -4.571    -464.670     213.867
  H       -9.013    -466.616     206.425
  H       -5.800    -464.115     212.770
  H      -10.981    -467.448     208.238
  H      -10.443    -468.733     206.193
  H       -8.989    -469.403     206.970
  P       -9.541    -464.096     207.055
  C      -11.808    -464.149     205.789
  O      -10.403    -464.318     205.718
  O       -8.028    -464.207     206.541
  O       -9.765    -462.802     207.770
  H       -7.650    -463.309     206.429
  H      -12.193    -463.939     204.782
  H      -12.087    -463.333     206.453
  H      -12.266    -465.077     206.151
  H      -11.516    -471.599     203.947
  H      -12.245    -472.470     205.274
  H      -10.610    -471.870     205.416

 3  4  5  6  7  8  9  10  11  12  23  26  30  31 0
 6-311+G(2d,p)
 ****
 33  35  36  37  38 0
 6-311+G(2d,p)
 ****
 1  2  13  14  15  16  17  18  19  20  21  22  24  25 0
 3-21G
 ****
 27  28  29  32  34  39  40  41  42  43  44  45  46  47  48  49 0
 3-21G
 ****


