%nproc=1
%NoSave
%Mem=1900MB
#P OB98/GEN NMR

erre ene a

0 1
  C       49.189    -179.829     107.151
  O       49.496    -181.014     107.853
  H       48.712    -179.128     107.841
  H       48.497    -180.037     106.330
  H       50.102    -179.369     106.761
  P       50.151    -182.238     107.051
  C       47.813    -183.283     106.718
  O       49.008    -182.829     106.090
  C       47.578    -184.765     106.394
  O       47.583    -184.906     104.951
  C       48.670    -185.676     106.973
  O       48.144    -186.747     107.754
  C       49.515    -186.024     105.754
  O       50.211    -187.248     105.857
  C       48.509    -185.951     104.600
  N       49.121    -185.681     103.298
  C       49.217    -186.745     102.406
  O       48.819    -187.887     102.619
  N       49.806    -186.452     101.199
  C       50.304    -185.242     100.820
  O       50.817    -185.041      99.723
  C       50.197    -184.166     101.817
  C       49.623    -184.430     102.993
  O       50.848    -183.257     107.888
  O       51.157    -181.535     106.022
  H       50.580    -187.447     104.969
  H       52.074    -181.656     106.330
  H       49.868    -187.212     100.537
  H       50.596    -183.194     101.553
  H       49.526    -183.659     103.754
  H       47.953    -186.887     104.515
  H       50.268    -185.238     105.620
  H       49.292    -185.126     107.691
  H       46.581    -185.048     106.751
  H       46.985    -182.676     106.344
  H       47.894    -183.149     107.802
  P       47.940    -186.718     109.336
  C       50.198    -187.867     110.041
  O       49.377    -186.708     110.037
  O       46.932    -187.675     109.882
  O       47.391    -185.226     109.621
  H       46.795    -185.295     110.392
  H       51.111    -187.655     110.557
  H       50.415    -188.154     109.033
  H       49.686    -188.665     110.536

 6  7  8  9  10  11  12  13  14  15  16  26  31  32  33  34  35 0
 6-311+G(2d,p)
 ****
 36  37 0
 6-311+G(2d,p)
 ****
 1  2  3  4  5  17  18  19  20  21  22  23  24  25 0
 3-21G
 ****
 27  28  29  30  38  39  40  41  42  43  44  45 0
 3-21G
 ****


