%nproc=1
%NoSave
%Mem=1900MB
#P OB98/GEN NMR

erre ene a

0 1
  C      -26.682    -142.698      10.494
  O      -27.996    -143.205      10.335
  P      -29.225    -142.198      10.539
  C      -28.533    -140.849       8.430
  O      -28.854    -140.813       9.813
  C      -29.792    -140.682       7.575
  O      -30.488    -139.469       7.966
  C      -29.503    -140.575       6.074
  O      -30.576    -141.184       5.340
  C      -29.561    -139.086       5.808
  O      -29.848    -138.809       4.437
  C      -30.660    -138.663       6.782
  N      -32.005    -134.020       5.307
  C      -32.470    -135.246       4.875
  N      -33.350    -135.231       3.852
  N      -32.110    -136.387       5.404
  C      -31.218    -136.249       6.417
  C      -30.697    -135.087       6.944
  C      -31.095    -133.836       6.340
  O      -30.700    -132.718       6.656
  N      -29.850    -135.348       7.988
  C      -29.821    -136.665       8.071
  N      -30.606    -137.256       7.115
  O      -29.140    -141.839      12.096
  O      -30.560    -142.765      10.193
  H      -30.687    -139.260       4.226
  H      -29.845    -142.305      12.582
  H      -32.306    -133.170       4.859
  H      -29.235    -137.233       8.779
  H      -31.657    -138.877       6.381
  H      -28.601    -138.621       6.057
  H      -33.617    -134.392       3.358
  H      -28.552    -141.020       5.762
  H      -33.671    -136.117       3.487
  H      -30.467    -141.519       7.780
  H      -28.068    -141.807       8.196
  H      -27.815    -140.054       8.200
  P      -30.195    -141.768       3.892
  C      -30.766    -144.244       4.463
  O      -29.772    -143.292       4.134
  O      -28.814    -141.037       3.553
  O      -31.233    -141.537       2.847
  H      -28.686    -140.986       2.587
  H      -30.816    -144.991       3.668
  H      -31.751    -143.786       4.585
  H      -30.487    -144.735       5.397
  H      -25.974    -143.483      10.328
  H      -26.565    -142.316      11.487
  H      -26.515    -141.912       9.788

 3  4  5  6  7  8  9  10  11  12  23  26  30  31 0
 6-311+G(2d,p)
 ****
 33  35  36  37  38 0
 6-311+G(2d,p)
 ****
 1  2  13  14  15  16  17  18  19  20  21  22  24  25 0
 3-21G
 ****
 27  28  29  32  34  39  40  41  42  43  44  45  46  47  48  49 0
 3-21G
 ****


