%nproc=1
%NoSave
%Mem=1900MB
#P OB98/GEN NMR

erre ene a

0 1
  C       99.949     636.918     461.236
  O       98.609     636.626     461.556
  H       99.977     637.806     460.593
  H      100.402     636.080     460.695
  H      100.525     637.125     462.145
  P       98.356     635.366     462.515
  C       97.078     633.344     461.489
  O       98.301     634.077     461.563
  C       96.221     633.879     460.356
  O       97.014     633.950     459.133
  C       95.025     633.002     460.005
  O       93.952     633.174     460.914
  C       94.706     633.473     458.599
  O       93.903     634.660     458.603
  C       96.101     633.777     458.018
  N       95.497     631.582     453.445
  C       94.944     632.678     453.999
  N       95.174     633.207     455.223
  C       96.097     632.486     455.887
  C       96.741     631.348     455.451
  C       96.411     630.893     454.165
  N       96.955     629.754     453.606
  N       97.587     630.866     456.428
  C       97.464     631.704     457.443
  N       96.574     632.708     457.148
  O       96.838     635.566     462.979
  O       99.282     635.255     463.680
  H       93.961     635.027     457.707
  H       96.815     635.955     463.874
  H       94.222     633.207     453.383
  H       97.985     631.633     458.385
  H       96.116     634.699     457.440
  H       94.168     632.707     458.046
  H       95.329     631.940     459.974
  H       95.904     634.900     460.602
  H       96.532     633.445     462.438
  H       97.311     632.281     461.333
  H       96.629     629.446     452.715
  H       97.559     629.164     454.179
  P       92.861     631.996     461.018
  C       90.498     632.744     460.181
  O       91.794     632.241     459.857
  O       92.056     632.336     462.358
  O       93.439     630.621     461.053
  H       91.800     631.512     462.814
  H       89.921     632.845     459.286
  H       90.594     633.699     460.653
  H       90.008     632.065     460.847

 6  7  8  9  10  11  12  13  14  15  25  28  32  33  34  35 0
 6-311+G(2d,p)
 ****
 36  37  40 0
 6-311+G(2d,p)
 ****
 1  2  3  4  5  16  17  18  19  20  21  22  23  24 0
 3-21G
 ****
 26  27  29  30  31  38  39 41  42  43  44  45  46  47  48 0
 3-21G
 ****


