%nproc=1
%NoSave
%Mem=1900MB
#P OB98/GEN NMR

erre ene a

0 1
  C      206.711    -466.171     -86.056
  O      206.466    -465.155     -87.006
  H      207.555    -466.777     -86.396
  H      205.830    -466.813     -85.976
  H      206.952    -465.746     -85.079
  P      205.551    -463.921     -86.542
  C      206.365    -462.563     -88.597
  O      205.256    -463.047     -87.859
  C      206.056    -462.576     -90.096
  O      206.103    -463.956     -90.569
  C      204.673    -462.008     -90.455
  O      204.776    -461.298     -91.699
  C      203.847    -463.259     -90.691
  O      202.719    -463.012     -91.524
  C      204.892    -464.175     -91.310
  N      201.853    -467.499     -93.531
  C      202.216    -466.222     -93.909
  N      201.635    -465.724     -95.020
  N      203.076    -465.489     -93.250
  C      203.598    -466.118     -92.167
  C      203.318    -467.373     -91.686
  C      202.352    -468.169     -92.413
  O      201.974    -469.296     -92.116
  N      204.010    -467.618     -90.522
  C      204.686    -466.503     -90.298
  N      204.467    -465.564     -91.269
  O      206.579    -463.017     -85.713
  O      204.350    -464.284     -85.735
  H      202.160    -463.813     -91.523
  H      206.512    -463.228     -84.762
  H      201.175    -468.015     -94.065
  H      205.324    -466.322     -89.444
  H      205.089    -463.936     -92.366
  H      203.490    -463.656     -89.732
  H      200.990    -466.238     -95.598
  H      204.252    -461.351     -89.691
  H      201.922    -464.804     -95.335
  H      206.850    -462.030     -90.623
  H      207.232    -463.208     -88.407
  H      206.605    -461.549     -88.268
  P      205.063    -459.723     -91.647
  C      206.179    -459.999     -93.985
  O      205.354    -459.205     -93.136
  O      206.500    -459.638     -90.940
  O      204.037    -458.945     -90.890
  H      206.548    -458.836     -90.385
  H      206.276    -459.520     -94.937
  H      205.734    -460.963     -94.114
  H      207.146    -460.109     -93.541

 6  7  8  9  10  11  12  13  14  15  26  29  33  34 0
 6-311+G(2d,p)
 ****
 36  38  39  40  41 0
 6-311+G(2d,p)
 ****
 1  2  3  4  5  16  17  18  19  20  21  22  23  24  25 0
 3-21G
 ****
 27  28  30  31  32  35  37  42  43  44  45  46  47 0
 3-21G
 ****
 48  49 0
 3-21G
 ****


