%nproc=1
%NoSave
%Mem=1900MB
#P OB98/GEN NMR

erre ene a

0 1
  C        1.060     169.301     129.476
  O        0.004     168.687     128.768
  H        1.990     168.775     129.241
  H        0.875     169.227     130.550
  H        1.170     170.350     129.193
  P       -1.391     169.460     128.642
  C       -2.633     167.394     129.564
  O       -2.402     168.788     129.692
  C       -4.119     167.097     129.338
  O       -4.896     167.651     130.428
  C       -4.608     167.775     128.054
  O       -5.691     167.068     127.452
  C       -5.111     169.121     128.552
  O       -6.043     169.733     127.668
  C       -5.698     168.728     129.908
  N       -8.003     173.017     131.415
  C       -8.221     172.260     130.281
  N       -9.160     172.718     129.425
  N       -7.562     171.164     130.004
  C       -6.602     170.867     130.912
  C       -6.277     171.552     132.061
  C       -7.038     172.741     132.376
  O       -6.875     173.461     133.358
  N       -5.231     170.955     132.721
  C       -4.919     169.917     131.970
  N       -5.733     169.812     130.869
  O       -1.975     168.965     127.234
  O       -1.313     170.956     128.708
  H       -5.568     169.949     126.844
  H       -2.592     169.625     126.871
  H       -8.547     173.844     131.588
  H       -4.124     169.212     132.181
  H       -6.726     168.358     129.792
  H       -4.254     169.795     128.639
  H       -9.560     173.640     129.507
  H       -3.809     167.892     127.321
  H       -9.125     172.352     128.469
  H       -4.295     166.015     129.338
  H       -2.296     166.924     130.495
  H       -2.029     166.983     128.753
  P       -5.443     166.433     126.002
  C       -5.944     168.771     124.923
  O       -5.107     167.633     124.992
  O       -6.896     165.939     125.555
  O       -4.443     165.324     125.992
  H       -6.956     164.967     125.621
  H       -5.557     169.455     124.197
  H       -5.977     169.248     125.880
  H       -6.931     168.471     124.640

 6  7  8  9  10  11  12  13  14  15  26  29  33  34 0
 6-311+G(2d,p)
 ****
 36  38  39  40  41 0
 6-311+G(2d,p)
 ****
 1  2  3  4  5  16  17  18  19  20  21  22  23  24  25 0
 3-21G
 ****
 27  28  30  31  32  35  37  42  43  44  45  46  47 0
 3-21G
 ****
 48  49 0
 3-21G
 ****


