%nproc=1
%NoSave
%Mem=1900MB
#P OB98/GEN NMR

erre ene a

0 1
  C     -189.601     132.515      46.182
  O     -189.236     131.400      46.977
  P     -188.170     131.663      48.154
  C     -185.571     131.903      48.247
  O     -186.725     131.633      47.466
  C     -184.323     131.419      47.505
  O     -184.257     129.978      47.519
  C     -184.266     131.832      46.040
  O     -183.793     133.160      45.917
  C     -183.319     130.785      45.465
  O     -181.946     131.135      45.728
  C     -183.724     129.525      46.245
  N     -184.500     125.056      44.010
  C     -183.324     125.641      44.446
  N     -182.198     124.904      44.302
  N     -183.258     126.836      44.974
  C     -184.458     127.457      45.041
  C     -185.685     126.991      44.630
  C     -185.752     125.650      44.096
  O     -186.779     125.050      43.787
  N     -186.671     127.919      44.839
  C     -186.045     128.932      45.404
  N     -184.704     128.694      45.568
  O     -188.230     130.311      49.003
  O     -188.431     132.879      48.987
  H     -181.361     130.503      45.272
  H     -188.799     130.421      49.788
  H     -184.492     124.127      43.626
  H     -186.518     129.846      45.732
  H     -182.863     128.883      46.467
  H     -183.415     130.692      44.379
  H     -182.171     123.989      43.882
  H     -185.255     131.729      45.576
  H     -181.329     125.320      44.613
  H     -183.444     131.796      48.044
  H     -185.650     131.376      49.200
  H     -185.513     132.980      48.441
  P     -184.175     133.965      44.583
  C     -183.759     133.633      42.039
  O     -183.454     133.222      43.361
  O     -183.363     135.336      44.733
  O     -185.637     134.213      44.408
  H     -183.889     136.070      44.359
  H     -182.885     133.455      41.410
  H     -184.021     134.694      41.996
  H     -184.597     133.040      41.664
  H     -190.310     132.208      45.442
  H     -188.731     132.910      45.700
  H     -190.037     133.269      46.804

 3  4  5  6  7  8  9  10  11  12  23  26  30  31 0
 6-311+G(2d,p)
 ****
 33  35  36  37  38 0
 6-311+G(2d,p)
 ****
 1  2  13  14  15  16  17  18  19  20  21  22  24  25 0
 3-21G
 ****
 27  28  29  32  34  39  40  41  42  43  44  45  46  47  48  49 0
 3-21G
 ****


