%nproc=1
%NoSave
%Mem=1900MB
#P OB98/GEN NMR

erre ene a

0 1
  C     -189.517     275.887     290.915
  O     -190.506     274.897     290.621
  P     -190.436     273.473     291.344
  C     -191.640     274.146     293.531
  O     -191.666     273.336     292.362
  C     -192.796     273.767     294.461
  O     -192.599     274.288     295.795
  C     -194.133     274.349     294.012
  O     -194.695     273.816     292.832
  C     -194.963     274.264     295.281
  O     -195.530     272.962     295.452
  C     -193.901     274.539     296.371
  N     -193.986     275.895     296.913
  C     -194.965     276.105     297.878
  O     -195.753     275.237     298.242
  N     -195.033     277.373     298.391
  C     -194.258     278.434     298.017
  O     -194.378     279.555     298.495
  C     -193.260     278.155     296.975
  C     -193.168     276.920     296.477
  O     -189.106     273.091     291.898
  O     -190.857     272.459     290.166
  H     -194.791     272.331     295.519
  H     -190.280     271.673     290.230
  H     -195.732     277.544     299.101
  H     -192.633     278.974     296.648
  H     -192.437     276.694     295.708
  H     -194.017     273.837     297.205
  H     -195.795     274.975     295.268
  H     -193.977     275.417     293.809
  H     -192.841     272.677     294.534
  H     -191.706     275.199     293.252
  H     -190.673     274.020     294.031
  P     -195.175     274.724     291.600
  C     -193.008     275.212     290.261
  O     -194.192     274.452     290.360
  O     -195.534     276.141     291.890
  O     -196.506     273.944     291.137
  H     -197.141     274.600     290.793
  H     -192.474     274.909     289.358
  H     -192.363     275.028     291.126
  H     -193.242     276.277     290.190
  H     -189.717     276.771     290.346
  H     -188.548     275.510     290.660
  H     -189.545     276.121     291.959

 3  4  5  6  7  8  9  10  11  12  13  23  28  29  30  31  32 0
 6-311+G(2d,p)
 ****
 33  34 0
 6-311+G(2d,p)
 ****
 1  2  14  15  16  17  18  19  20  21  22  24  25  26  27 0
 3-21G
 ****
 35  36  37  38  39  40  41  42  43  44  45 0
 3-21G
 ****


