%nproc=1
%NoSave
%Mem=1900MB
#P OB98/GEN NMR

erre ene a

0 1
  C      115.399     132.716       8.773
  O      116.028     131.756       9.639
  P      117.467     132.118      10.243
  C      118.495     130.613       8.387
  O      118.565     131.836       9.108
  C      119.141     130.770       7.007
  O      120.521     131.197       7.110
  C      119.160     129.486       6.185
  O      117.928     129.268       5.520
  C      120.249     129.802       5.171
  O      119.707     130.630       4.115
  C      121.255     130.599       6.015
  N      124.506     126.878       4.930
  C      123.548     127.474       4.134
  N      123.448     127.028       2.867
  N      122.761     128.437       4.554
  C      122.986     128.794       5.843
  C      123.896     128.271       6.726
  C      124.758     127.201       6.252
  O      125.613     126.615       6.920
  N      123.828     128.887       7.945
  C      122.888     129.797       7.796
  N      122.328     129.768       6.540
  O      117.718     130.934      11.290
  O      117.538     133.461      10.896
  H      119.238     131.364       4.556
  H      118.306     131.245      12.004
  H      125.082     126.134       4.561
  H      122.566     130.492       8.564
  H      121.728     131.411       5.450
  H      120.647     128.907       4.696
  H      124.053     126.331       2.466
  H      119.455     128.627       6.804
  H      122.774     127.485       2.260
  H      118.581     131.540       6.453
  H      117.451     130.298       8.276
  H      118.980     129.823       8.971
  P      116.884     128.239       6.181
  C      117.720     126.302       4.671
  O      117.515     126.778       5.982
  O      115.651     128.273       5.163
  O      116.465     128.593       7.576
  H      114.813     128.123       5.649
  H      118.307     125.375       4.722
  H      118.284     127.031       4.075
  H      116.761     126.090       4.189
  H      114.451     132.338       8.450
  H      116.022     132.890       7.921
  H      115.255     133.634       9.303

 3  4  5  6  7  8  9  10  11  12  23  26  30  31 0
 6-311+G(2d,p)
 ****
 33  35  36  37  38 0
 6-311+G(2d,p)
 ****
 1  2  13  14  15  16  17  18  19  20  21  22  24  25 0
 3-21G
 ****
 27  28  29  32  34  39  40  41  42  43  44  45  46  47  48  49 0
 3-21G
 ****


