%nproc=1
%NoSave
%Mem=1900MB
#P OB98/GEN NMR

erre ene a

0 1
  C     -198.873      71.668    -166.653
  O     -200.156      71.299    -167.176
  P     -201.364      70.853    -166.217
  C     -200.335      68.731    -165.197
  O     -200.801      70.053    -164.940
  C     -201.086      67.659    -164.394
  O     -200.858      66.337    -164.951
  C     -200.710      67.581    -162.908
  O     -201.893      67.160    -162.224
  C     -199.666      66.477    -162.904
  O     -199.451      65.907    -161.619
  C     -200.268      65.518    -163.924
  N     -199.125      60.611    -164.839
  C     -200.269      61.205    -164.434
  N     -200.506      62.518    -164.249
  C     -199.427      63.251    -164.568
  C     -198.198      62.785    -165.005
  C     -198.060      61.392    -165.128
  N     -196.885      60.775    -165.494
  N     -197.319      63.832    -165.201
  C     -198.008      64.911    -164.880
  N     -199.289      64.613    -164.492
  O     -202.481      70.156    -166.923
  O     -201.893      72.228    -165.585
  H     -198.779      65.207    -161.704
  H     -202.868      72.243    -165.626
  H     -201.101      60.535    -164.223
  H     -197.625      65.922    -164.886
  H     -201.067      64.913    -163.479
  H     -198.707      66.887    -163.247
  H     -200.337      68.525    -162.503
  H     -202.159      67.860    -164.503
  H     -199.267      68.686    -164.953
  H     -196.858      59.768    -165.465
  H     -196.048      61.332    -165.588
  H     -200.440      68.525    -166.270
  P     -202.651      68.112    -161.185
  C     -201.511      67.089    -159.134
  O     -201.691      68.259    -159.911
  O     -204.052      67.707    -160.869
  O     -202.597      69.566    -161.856
  H     -203.278      70.136    -161.456
  H     -202.398      66.918    -158.518
  H     -200.644      67.223    -158.483
  H     -201.341      66.216    -159.773
  H     -198.220      71.929    -167.460
  H     -198.458      70.844    -166.111
  H     -198.983      72.507    -165.998

 3  4  5  6  7  8  9  10  11  12  22  25  29  30  31  32 0
 6-311+G(2d,p)
 ****
 33  36  37 0
 6-311+G(2d,p)
 ****
 1  2  13  14  15  16  17  18  19  20  21  23  24  26 0
 3-21G
 ****
 27  28  34  35  38  39  40  41  42  43  44  45  46  47  48 0
 3-21G
 ****


