%nproc=1
%NoSave
%Mem=1900MB
#P OB98/GEN NMR

erre ene a

0 1
  C     -386.244     332.738     490.067
  O     -385.086     331.943     489.903
  H     -386.918     332.237     490.773
  H     -386.762     332.851     489.112
  H     -385.984     333.723     490.468
  P     -383.882     332.587     489.048
  C     -382.195     330.983     490.266
  O     -382.720     331.488     489.047
  C     -381.273     329.790     490.009
  O     -382.089     328.647     489.659
  C     -380.268     330.017     488.873
  O     -379.037     329.384     489.230
  C     -380.901     329.312     487.692
  O     -379.930     328.941     486.713
  C     -381.631     328.148     488.379
  N     -382.744     327.633     487.576
  C     -382.470     326.534     486.752
  O     -381.331     326.054     486.717
  N     -383.473     326.024     485.968
  C     -384.634     326.618     485.948
  N     -385.579     326.075     485.131
  C     -384.949     327.815     486.755
  C     -383.973     328.247     487.549
  O     -383.342     333.721     490.050
  O     -384.287     333.093     487.707
  H     -379.517     328.091     486.992
  H     -383.301     333.428     490.978
  H     -385.926     328.274     486.693
  H     -384.128     329.114     488.181
  H     -380.929     327.323     488.579
  H     -381.630     329.982     487.205
  H     -380.089     331.080     488.663
  H     -380.761     329.537     490.947
  H     -385.322     325.276     484.582
  H     -383.017     330.681     490.928
  H     -386.498     326.477     484.995
  H     -381.648     331.794     490.762
  P     -377.669     329.906     488.575
  C     -376.475     330.166     490.851
  O     -376.443     329.557     489.558
  O     -377.689     331.309     488.069
  O     -377.430     328.873     487.361
  H     -377.069     329.376     486.602
  H     -375.615     329.862     491.410
  H     -377.362     329.861     491.367
  H     -376.472     331.231     490.744

 6  7  8  9  10  11  12  13  14  15  16  26  30  31  32  33  35 0
 6-311+G(2d,p)
 ****
 37  38 0
 6-311+G(2d,p)
 ****
 1  2  3  4  5  17  18  19  20  21  22  23  24  25 0
 3-21G
 ****
 27  28  29  34  36  39  40  41  42  43  44  45  46 0
 3-21G
 ****


