%nproc=1
%NoSave
%Mem=1900MB
#P OB98/GEN NMR

erre ene a

0 1
  C     -283.062     304.519    -552.965
  O     -282.400     305.023    -551.820
  H     -282.840     305.172    -553.813
  H     -284.143     304.508    -552.804
  H     -282.707     303.510    -553.193
  P     -282.624     304.211    -550.449
  C     -280.964     302.347    -551.146
  O     -282.293     302.675    -550.786
  C     -280.643     300.904    -550.750
  O     -280.517     300.785    -549.317
  C     -281.694     299.888    -551.182
  O     -281.507     299.502    -552.531
  C     -281.429     298.753    -550.203
  O     -280.313     297.937    -550.626
  C     -281.092     299.512    -548.911
  N     -284.148     297.377    -545.506
  C     -283.035     296.876    -546.144
  N     -282.720     295.582    -545.876
  N     -282.303     297.557    -546.977
  C     -282.758     298.816    -547.178
  C     -283.836     299.438    -546.592
  C     -284.617     298.674    -545.641
  O     -285.577     299.087    -544.992
  N     -283.962     300.731    -547.030
  C     -282.989     300.876    -547.912
  N     -282.241     299.735    -548.046
  O     -284.219     304.211    -550.272
  O     -281.937     304.774    -549.253
  H     -280.139     297.260    -549.949
  H     -284.428     304.199    -549.318
  H     -284.663     296.803    -544.858
  H     -282.795     301.779    -548.471
  H     -280.341     298.991    -548.311
  H     -282.285     298.081    -550.121
  H     -283.409     294.932    -545.522
  H     -282.704     300.280    -551.019
  H     -281.918     295.196    -546.357
  H     -279.666     300.655    -551.179
  H     -280.272     303.019    -550.621
  H     -280.834     302.472    -552.225
  P     -282.761     298.867    -553.308
  C     -284.315     300.955    -553.433
  O     -284.057     299.693    -552.831
  O     -282.946     297.443    -552.600
  O     -282.585     298.740    -554.789
  H     -283.499     296.862    -553.155
  H     -285.205     301.376    -553.013
  H     -284.445     300.827    -554.487
  H     -283.490     301.612    -553.252

 6  7  8  9  10  11  12  13  14  15  26  29  33  34 0
 6-311+G(2d,p)
 ****
 36  38  39  40  41 0
 6-311+G(2d,p)
 ****
 1  2  3  4  5  16  17  18  19  20  21  22  23  24  25 0
 3-21G
 ****
 27  28  30  31  32  35  37  42  43  44  45  46  47 0
 3-21G
 ****
 48  49 0
 3-21G
 ****


