%nproc=1
%NoSave
%Mem=1900MB
#P OB98/GEN NMR

erre ene a

0 1
  C      -12.304    -232.230    -141.502
  O      -12.605    -233.416    -142.208
  P      -12.063    -234.836    -141.709
  C      -14.308    -236.014    -141.341
  O      -13.154    -235.466    -140.720
  C      -15.284    -236.575    -140.309
  O      -14.702    -237.749    -139.685
  C      -15.657    -235.587    -139.197
  O      -17.042    -235.790    -138.896
  C      -14.789    -236.033    -138.036
  O      -15.301    -235.609    -136.781
  C      -14.773    -237.549    -138.259
  N      -13.667    -238.200    -137.575
  C      -13.912    -238.672    -136.284
  O      -14.979    -238.415    -135.723
  N      -12.937    -239.407    -135.659
  C      -11.760    -239.495    -136.198
  N      -10.844    -240.289    -135.580
  C      -11.395    -238.796    -137.445
  C      -12.396    -238.210    -138.097
  O      -10.671    -234.828    -141.171
  O      -12.168    -235.774    -143.004
  H      -11.301    -236.193    -143.165
  H      -16.253    -235.842    -136.733
  H      -10.372    -238.796    -137.789
  H      -12.234    -237.695    -139.036
  H      -15.714    -237.998    -137.916
  H      -13.781    -235.618    -138.150
  H      -15.499    -234.544    -139.485
  H      -16.188    -236.904    -140.838
  H      -11.143    -240.785    -134.750
  H      -13.987    -236.822    -142.003
  H      -10.037    -240.668    -136.073
  H      -14.796    -235.252    -141.959
  P      -18.015    -234.511    -138.884
  C      -18.917    -234.121    -141.284
  O      -17.929    -233.815    -140.324
  O      -17.185    -233.485    -137.967
  O      -19.378    -234.716    -138.309
  H      -17.805    -232.852    -137.560
  H      -18.665    -233.613    -142.219
  H      -19.895    -233.767    -140.950
  H      -18.956    -235.197    -141.469
  H      -12.757    -231.396    -141.996
  H      -11.243    -232.093    -141.471
  H      -12.684    -232.303    -140.504

 3  4  5  6  7  8  9  10  11  12  13  24  27  28  29  30  32 0
 6-311+G(2d,p)
 ****
 34  35 0
 6-311+G(2d,p)
 ****
 1  2  14  15  16  17  18  19  20  21  22  23  25  26 0
 3-21G
 ****
 31  33  36  37  38  39  40  41  42  43  44  45  46 0
 3-21G
 ****


