%nproc=1
%NoSave
%Mem=1900MB
#P OB98/GEN NMR

erre ene a

0 1
  C     -362.915    -433.722     516.228
  O     -362.193    -432.869     515.334
  P     -362.019    -433.194     513.774
  C     -359.822    -434.534     513.613
  O     -361.251    -434.592     513.589
  C     -359.202    -435.799     513.004
  O     -359.327    -436.911     513.910
  C     -359.847    -436.271     511.706
  O     -359.447    -435.461     510.601
  C     -359.367    -437.711     511.635
  O     -358.038    -437.790     511.097
  C     -359.392    -438.124     513.124
  N     -360.545    -438.934     513.472
  C     -360.328    -439.981     514.373
  O     -359.199    -440.211     514.796
  N     -361.400    -440.753     514.750
  C     -362.568    -440.548     514.216
  N     -363.597    -441.346     514.644
  C     -362.825    -439.516     513.196
  C     -361.775    -438.758     512.869
  O     -361.434    -432.073     512.977
  O     -363.509    -433.523     513.251
  H     -358.105    -437.496     510.160
  H     -363.589    -433.256     512.309
  H     -363.800    -439.397     512.750
  H     -361.868    -437.970     512.121
  H     -358.471    -438.684     513.380
  H     -360.003    -438.349     511.004
  H     -360.941    -436.251     511.801
  H     -358.131    -435.607     512.856
  H     -363.390    -442.033     515.351
  H     -359.495    -434.445     514.652
  H     -364.546    -441.266     514.288
  H     -359.501    -433.648     513.052
  P     -360.431    -434.326     510.052
  C     -361.135    -435.525     507.879
  O     -361.557    -435.054     509.159
  O     -359.755    -433.153     509.408
  O     -361.260    -433.871     511.344
  H     -361.493    -432.927     511.262
  H     -361.819    -436.321     507.581
  H     -360.121    -435.929     507.928
  H     -361.172    -434.697     507.176
  H     -362.897    -433.304     517.213
  H     -362.459    -434.690     516.243
  H     -363.928    -433.810     515.896

 3  4  5  6  7  8  9  10  11  12  13  23  27  28  29  30  32 0
 6-311+G(2d,p)
 ****
 34  35 0
 6-311+G(2d,p)
 ****
 1  2  14  15  16  17  18  19  20  21  22  24  25  26 0
 3-21G
 ****
 31  33  36  37  38  39  40  41  42  43  44  45  46 0
 3-21G
 ****


