%nproc=1
%NoSave
%Mem=1900MB
#P OB98/GEN NMR

erre ene a

0 1
  C     -823.851    -712.485    -599.317
  O     -823.509    -713.827    -599.049
  H     -824.828    -712.273    -598.880
  H     -823.918    -712.330    -600.399
  H     -823.116    -711.793    -598.886
  P     -822.039    -714.345    -599.446
  C     -820.721    -714.715    -601.622
  O     -821.949    -714.324    -601.042
  C     -820.984    -715.441    -602.955
  O     -821.627    -714.525    -603.876
  C     -819.715    -715.901    -603.666
  O     -819.180    -717.063    -603.070
  C     -820.230    -716.092    -605.076
  O     -820.899    -717.356    -605.221
  C     -821.228    -714.933    -605.217
  N     -820.697    -713.809    -605.975
  C     -821.295    -713.546    -607.196
  O     -822.247    -714.189    -607.636
  N     -820.726    -712.530    -607.926
  C     -819.569    -711.882    -607.635
  O     -818.970    -711.180    -608.430
  C     -819.009    -712.171    -606.299
  C     -819.576    -713.100    -605.538
  O     -821.605    -715.624    -598.802
  O     -821.089    -713.122    -599.019
  H     -820.643    -713.340    -598.179
  H     -820.188    -718.032    -605.248
  H     -821.148    -712.353    -608.844
  H     -818.126    -711.614    -605.996
  H     -819.159    -713.329    -604.581
  H     -822.163    -715.278    -605.710
  H     -819.429    -716.051    -605.817
  H     -818.970    -715.097    -603.655
  H     -821.666    -716.265    -602.790
  H     -820.219    -715.433    -600.937
  H     -820.089    -713.854    -601.774
  P     -817.745    -717.631    -603.530
  C     -816.506    -717.708    -605.772
  O     -817.772    -717.813    -605.116
  O     -817.254    -718.815    -602.774
  O     -816.768    -716.375    -603.319
  H     -815.971    -716.690    -602.829
  H     -816.638    -717.845    -606.825
  H     -815.845    -718.460    -605.394
  H     -816.088    -716.741    -605.588

 6  7  8  9  10  11  12  13  14  15  16  27  31  32  33  34  35 0
 6-311+G(2d,p)
 ****
 36  37 0
 6-311+G(2d,p)
 ****
 1  2  3  4  5  17  18  19  20  21  22  23  24  25 0
 3-21G
 ****
 26  28  29  30  38  39  40  41  42  43  44  45 0
 3-21G
 ****


