%nproc=1
%NoSave
%Mem=1900MB
#P OB98/GEN NMR

erre ene a

0 1
  C     -576.416     234.949    -167.638
  O     -576.682     236.125    -166.872
  P     -577.032     235.990    -165.318
  C     -575.010     237.210    -164.257
  O     -575.671     235.968    -164.465
  C     -573.591     237.153    -164.823
  O     -573.595     237.085    -166.264
  C     -572.777     238.400    -164.499
  O     -572.396     238.587    -163.152
  C     -571.661     238.334    -165.530
  O     -570.598     237.468    -165.104
  C     -572.398     237.728    -166.751
  N     -572.705     238.724    -167.775
  C     -571.671     239.032    -168.659
  O     -570.543     238.546    -168.570
  N     -571.968     239.953    -169.621
  C     -573.162     240.607    -169.774
  O     -573.366     241.447    -170.647
  C     -574.199     240.261    -168.798
  C     -573.938     239.349    -167.858
  O     -578.021     234.933    -164.964
  O     -577.629     237.446    -164.966
  H     -570.252     237.827    -164.265
  H     -578.391     237.319    -164.374
  H     -571.234     240.185    -170.276
  H     -575.158     240.763    -168.883
  H     -574.695     239.073    -167.127
  H     -571.785     236.944    -167.216
  H     -571.210     239.319    -165.712
  H     -573.383     239.279    -164.755
  H     -573.102     236.250    -164.450
  H     -574.978     237.438    -163.185
  H     -575.597     238.005    -164.729
  P     -573.071     239.685    -162.197
  C     -573.905     238.012    -160.401
  O     -574.243     238.977    -161.360
  O     -573.362     241.026    -162.788
  O     -571.945     239.863    -161.075
  H     -571.960     240.789    -160.761
  H     -574.820     237.627    -159.946
  H     -573.290     238.457    -159.608
  H     -573.367     237.176    -160.865
  H     -576.202     235.223    -168.650
  H     -577.272     234.308    -167.616
  H     -575.575     234.435    -167.222

 3  4  5  6  7  8  9  10  11  12  13  23  28  29  30  31  32 0
 6-311+G(2d,p)
 ****
 33  34 0
 6-311+G(2d,p)
 ****
 1  2  14  15  16  17  18  19  20  21  22  24  25  26  27 0
 3-21G
 ****
 35  36  37  38  39  40  41  42  43  44  45 0
 3-21G
 ****


