%nproc=1
%NoSave
%Mem=1900MB
#P OB98/GEN NMR

erre ene a

0 1
  C     -194.634     452.228    -380.229
  O     -194.526     453.633    -380.340
  H     -194.627     451.961    -379.171
  H     -193.795     451.733    -380.724
  H     -195.581     451.884    -380.663
  P     -194.477     454.281    -381.808
  C     -196.732     455.522    -381.988
  O     -195.343     455.637    -381.725
  C     -197.427     456.868    -381.745
  O     -197.435     457.175    -380.339
  C     -196.756     458.053    -382.437
  O     -197.150     458.118    -383.799
  C     -197.306     459.206    -381.615
  O     -198.669     459.466    -381.997
  C     -197.259     458.612    -380.191
  N     -194.487     462.082    -377.724
  C     -195.640     462.244    -378.471
  N     -196.095     463.496    -378.606
  N     -196.279     461.252    -379.044
  C     -195.665     460.051    -378.888
  C     -194.508     459.777    -378.190
  C     -193.842     460.861    -377.505
  O     -192.838     460.772    -376.811
  N     -194.137     458.457    -378.329
  C     -195.105     457.927    -379.067
  N     -196.047     458.858    -379.444
  O     -194.861     453.377    -382.944
  O     -192.975     454.818    -381.951
  H     -199.233     458.815    -381.513
  H     -192.397     454.147    -382.356
  H     -194.024     462.881    -377.322
  H     -195.160     456.894    -379.354
  H     -198.095     458.978    -379.567
  H     -196.742     460.127    -381.751
  H     -195.571     464.316    -378.308
  H     -195.663     458.023    -382.325
  H     -196.918     463.641    -379.198
  H     -198.479     456.764    -382.059
  H     -197.142     454.759    -381.312
  H     -196.912     455.208    -383.021
  P     -196.077     458.044    -384.992
  C     -198.022     458.455    -386.645
  O     -196.733     458.853    -386.208
  O     -195.611     456.668    -385.332
  O     -194.904     459.031    -384.535
  H     -194.242     458.599    -383.939
  H     -198.332     459.079    -387.457
  H     -198.717     458.549    -385.837
  H     -197.989     457.436    -386.970

 6  7  8  9  10  11  12  13  14  15  26  29  33  34 0
 6-311+G(2d,p)
 ****
 36  38  39  40  41 0
 6-311+G(2d,p)
 ****
 1  2  3  4  5  16  17  18  19  20  21  22  23  24  25 0
 3-21G
 ****
 27  28  30  31  32  35  37  42  43  44  45  46  47 0
 3-21G
 ****
 48  49 0
 3-21G
 ****


