%nproc=1
%NoSave
%Mem=1900MB
#P OB98/GEN NMR

erre ene a

0 1
  C     -394.212     540.192     -74.859
  O     -395.037     539.606     -75.842
  H     -393.867     539.406     -74.176
  H     -394.768     540.934     -74.285
  H     -393.343     540.657     -75.333
  P     -395.739     540.604     -76.888
  C     -395.725     539.697     -79.325
  O     -395.012     540.382     -78.304
  C     -394.730     539.157     -80.354
  O     -393.874     538.172     -79.727
  C     -395.383     538.435     -81.521
  O     -395.900     539.321     -82.502
  C     -394.216     537.622     -82.050
  O     -393.390     538.387     -82.944
  C     -393.448     537.259     -80.769
  N     -393.658     535.872     -80.386
  C     -392.596     535.004     -80.648
  O     -391.547     535.365     -81.176
  N     -392.812     533.688     -80.327
  C     -393.961     533.162     -79.828
  O     -394.102     531.962     -79.615
  C     -395.049     534.117     -79.584
  C     -394.861     535.409     -79.867
  O     -395.231     542.042     -76.412
  O     -397.234     540.518     -76.932
  H     -395.962     542.523     -75.973
  H     -392.826     538.953     -82.371
  H     -392.050     533.042     -80.513
  H     -395.982     533.733     -79.182
  H     -395.643     536.130     -79.708
  H     -392.373     537.419     -80.903
  H     -394.552     536.752     -82.601
  H     -396.154     537.748     -81.159
  H     -394.105     539.987     -80.710
  H     -396.405     540.389     -79.827
  H     -396.306     538.889     -78.879
  P     -397.335     538.963     -83.146
  C     -398.404     541.366     -83.242
  O     -398.344     540.091     -82.619
  O     -397.711     537.658     -82.310
  O     -397.281     538.786     -84.627
  H     -397.292     537.652     -81.426
  H     -399.134     541.971     -82.746
  H     -398.677     541.248     -84.270
  H     -397.446     541.839     -83.179

 6  7  8  9  10  11  12  13  14  15  16  27  31  32  33  34  35 0
 6-311+G(2d,p)
 ****
 36  37 0
 6-311+G(2d,p)
 ****
 1  2  3  4  5  17  18  19  20  21  22  23  24  25 0
 3-21G
 ****
 26  28  29  30  38  39  40  41  42  43  44  45 0
 3-21G
 ****


