%nproc=1
%NoSave
%Mem=1900MB
#P OB98/GEN NMR

erre ene a

0 1
  C     -728.450     280.166    -181.689
  O     -729.295     279.031    -181.726
  H     -729.033     281.025    -181.350
  H     -728.051     280.378    -182.683
  H     -727.632     279.998    -180.983
  P     -728.634     277.661    -182.235
  C     -729.790     277.401    -184.540
  O     -728.621     277.796    -183.835
  C     -729.436     276.952    -185.958
  O     -728.749     278.005    -186.656
  C     -728.527     275.734    -186.022
  O     -729.285     274.539    -185.899
  C     -727.944     275.880    -187.421
  O     -728.887     275.379    -188.388
  C     -727.801     277.405    -187.567
  N     -723.587     279.527    -189.583
  C     -724.662     278.954    -190.164
  N     -725.713     278.361    -189.569
  C     -725.599     278.408    -188.229
  C     -724.556     278.957    -187.497
  C     -723.511     279.547    -188.232
  N     -722.417     280.130    -187.641
  N     -724.775     278.814    -186.147
  C     -725.957     278.245    -186.062
  N     -726.481     277.942    -187.291
  O     -729.230     276.412    -181.683
  O     -727.097     277.906    -181.856
  H     -729.084     274.454    -188.142
  H     -726.839     278.823    -182.053
  H     -724.672     278.966    -191.249
  H     -726.481     278.042    -185.136
  H     -728.065     277.737    -188.582
  H     -727.022     275.316    -187.555
  H     -727.716     275.788    -185.286
  H     -730.378     276.765    -186.492
  H     -730.506     278.232    -184.580
  H     -721.630     280.350    -188.240
  H     -722.304     280.028    -186.644
  H     -730.249     276.576    -183.985
  P     -728.811     273.355    -184.924
  C     -727.565     271.920    -186.658
  O     -727.437     272.821    -185.561
  O     -729.852     272.316    -184.660
  O     -728.323     274.103    -183.603
  H     -728.264     273.462    -182.859
  H     -726.592     271.633    -186.999
  H     -728.094     272.400    -187.454
  H     -728.104     271.051    -186.345

 6  7  8  9  10  11  12  13  14  15  25  28  32  33  34  35 0
 6-311+G(2d,p)
 ****
 36  39  40 0
 6-311+G(2d,p)
 ****
 1  2  3  4  5  16  17  18  19  20  21  22  23  24 0
 3-21G
 ****
 26  27  29  30  31  37  38  41  42  43  44  45  46  47 0
 3-21G
 ****
 48 0
 3-21G
 ****


