%nproc=1
%NoSave
%Mem=1900MB
#P OB98/GEN NMR

erre ene a

0 1
  C      -16.425    -103.871      34.749
  O      -15.806    -104.032      36.028
  P      -14.990    -102.775      36.597
  C      -16.668    -101.425      38.049
  O      -15.613    -102.377      38.019
  C      -16.348    -100.315      39.049
  O      -17.178     -99.152      38.842
  C      -16.584    -100.721      40.499
  O      -15.555    -101.581      40.961
  C      -16.623     -99.356      41.175
  O      -15.291     -98.856      41.378
  C      -17.343     -98.497      40.123
  N      -20.798     -95.724      42.682
  C      -19.451     -95.653      42.617
  N      -18.602     -96.430      41.914
  C      -19.276     -97.356      41.213
  C      -20.647     -97.548      41.175
  C      -21.426     -96.681      41.959
  N      -22.798     -96.763      42.035
  N      -20.968     -98.601      40.343
  C      -19.809     -99.051      39.906
  N      -18.758     -98.324      40.394
  O      -15.438    -101.578      35.636
  O      -13.508    -102.968      36.586
  H      -14.871     -99.415      42.063
  H      -14.703    -101.332      35.044
  H      -18.993     -94.866      43.212
  H      -19.682     -99.896      39.239
  H      -16.907     -97.496      40.036
  H      -17.118     -99.375      42.151
  H      -17.556    -101.219      40.599
  H      -15.298    -100.024      38.911
  H      -17.609    -101.911      38.323
  H      -23.275     -96.155      42.682
  H      -23.269     -97.527      41.570
  H      -16.805    -101.021      37.040
  P      -15.985    -102.870      41.811
  C      -16.793    -104.221      39.782
  O      -15.796    -104.086      40.777
  O      -17.572    -102.704      41.870
  O      -15.292    -103.020      43.122
  H      -17.944    -102.470      41.001
  H      -16.526    -105.057      39.131
  H      -16.855    -103.309      39.182
  H      -17.761    -104.429      40.247
  H      -16.935    -104.774      34.483
  H      -15.677    -103.654      34.015
  H      -17.127    -103.064      34.791

 3  4  5  6  7  8  9  10  11  12  22  25  29  30  31  32 0
 6-311+G(2d,p)
 ****
 33  36  37 0
 6-311+G(2d,p)
 ****
 1  2  13  14  15  16  17  18  19  20  21  23  24  26 0
 3-21G
 ****
 27  28  34  35  38  39  40  41  42  43  44  45  46  47  48 0
 3-21G
 ****


