%nproc=1
%NoSave
%Mem=1900MB
#P OB98/GEN NMR

erre ene a

0 1
  C     -309.466     121.244     359.398
  O     -308.140     121.101     359.870
  H     -309.845     120.259     359.115
  H     -309.481     121.889     358.517
  H     -310.113     121.660     360.177
  P     -307.410     122.367     360.520
  C     -306.471     123.066     358.216
  O     -307.234     123.452     359.352
  C     -306.734     124.012     357.041
  O     -306.136     125.310     357.346
  C     -306.129     123.540     355.700
  O     -306.974     124.043     354.654
  C     -304.790     124.254     355.720
  O     -304.129     124.213     354.483
  C     -305.248     125.623     356.251
  N     -304.178     126.512     356.694
  C     -303.986     127.694     355.983
  O     -304.655     128.048     355.016
  N     -302.963     128.497     356.431
  C     -302.152     128.241     357.501
  O     -301.273     129.009     357.874
  C     -302.400     126.972     358.200
  C     -303.387     126.180     357.778
  O     -306.174     122.076     361.304
  O     -308.548     123.024     361.442
  H     -308.391     122.782     362.378
  H     -304.715     124.597     353.795
  H     -302.817     129.359     355.933
  H     -301.764     126.735     359.042
  H     -303.602     125.244     358.282
  H     -305.844     126.136     355.485
  H     -304.115     123.767     356.433
  H     -306.062     122.451     355.619
  H     -307.816     124.174     356.950
  H     -306.758     122.043     357.942
  H     -305.406     123.077     358.479
  P     -308.014     123.131     353.843
  C     -306.077     122.424     352.272
  O     -307.180     121.998     353.062
  O     -308.942     123.903     352.957
  O     -308.829     122.318     354.958
  H     -309.706     122.075     354.610
  H     -305.617     121.574     351.813
  H     -305.364     122.922     352.895
  H     -306.420     123.097     351.514

 6  7  8  9  10  11  12  13  14  15  16  27  31  32  33  34  35 0
 6-311+G(2d,p)
 ****
 36  37 0
 6-311+G(2d,p)
 ****
 1  2  3  4  5  17  18  19  20  21  22  23  24  25 0
 3-21G
 ****
 26  28  29  30  38  39  40  41  42  43  44  45 0
 3-21G
 ****


