%nproc=1
%NoSave
%Mem=1900MB
#P OB98/GEN NMR

erre ene a

0 1
  C       30.439    -110.411      61.792
  O       29.827    -111.127      60.739
  H       30.788    -111.103      62.563
  H       31.298    -109.864      61.395
  H       29.734    -109.696      62.224
  P       28.548    -112.014      61.133
  C       27.358    -111.576      58.876
  O       27.913    -112.545      59.754
  C       28.433    -111.056      57.926
  O       28.969    -112.185      57.188
  C       27.923    -110.019      56.909
  O       28.770    -108.863      56.903
  C       28.052    -110.721      55.570
  O       28.393    -109.836      54.509
  C       29.143    -111.749      55.834
  N       31.045    -113.702      51.525
  C       31.547    -112.794      52.391
  N       31.035    -112.389      53.571
  C       29.896    -113.048      53.846
  C       29.276    -114.016      53.073
  C       29.890    -114.326      51.848
  N       29.350    -115.210      50.939
  N       28.117    -114.461      53.681
  C       28.016    -113.744      54.781
  N       29.061    -112.865      54.916
  O       27.489    -110.925      61.642
  O       28.808    -113.053      62.170
  H       29.283    -109.487      54.696
  H       27.271    -111.111      62.575
  H       32.482    -112.326      52.094
  H       27.194    -113.783      55.484
  H       30.147    -111.309      55.748
  H       27.098    -111.204      55.327
  H       26.891    -109.712      57.102
  H       29.255    -110.638      58.519
  H       26.961    -110.737      59.459
  H       29.793    -115.285      50.037
  H       28.434    -115.592      51.126
  H       26.537    -112.032      58.313
  P       28.351    -107.672      57.900
  C       30.801    -107.003      58.444
  O       29.546    -106.596      57.917
  O       28.427    -108.362      59.341
  O       26.994    -107.114      57.633
  H       27.569    -108.274      59.799
  H       31.492    -106.188      58.390
  H       31.177    -107.827      57.874
  H       30.680    -107.301      59.465

 6  7  8  9  10  11  12  13  14  15  25  28  32  33  34  35 0
 6-311+G(2d,p)
 ****
 36  39  40 0
 6-311+G(2d,p)
 ****
 1  2  3  4  5  16  17  18  19  20  21  22  23  24 0
 3-21G
 ****
 26  27  29  30  31  37  38  41  42  43  44  45  46  47  48 0
 3-21G
 ****


