%nproc=1
%NoSave
%Mem=1900MB
#P OB98/GEN NMR

erre ene a

0 1
  C      244.774      39.653    -265.758
  O      244.780      38.282    -265.396
  P      246.084      37.414    -265.759
  C      246.351      35.782    -263.747
  O      245.884      35.979    -265.070
  C      246.405      34.289    -263.412
  O      245.045      33.785    -263.341
  C      247.153      33.426    -264.436
  O      247.758      32.349    -263.707
  C      246.042      32.887    -265.313
  O      246.419      31.710    -266.016
  C      244.934      32.691    -264.279
  N      241.269      29.788    -266.206
  C      242.534      29.439    -265.766
  N      242.835      28.125    -265.792
  N      243.422      30.304    -265.340
  C      242.967      31.579    -265.357
  C      241.758      32.051    -265.806
  C      240.774      31.085    -266.237
  O      239.614      31.342    -266.554
  N      241.697      33.420    -265.749
  C      242.843      33.768    -265.192
  N      243.622      32.684    -264.894
  O      247.224      38.102    -264.880
  O      246.434      37.351    -267.212
  H      245.679      31.463    -266.611
  H      247.709      38.776    -265.395
  H      240.621      29.077    -266.506
  H      243.154      34.779    -264.979
  H      245.047      31.748    -263.725
  H      245.757      33.645    -266.052
  H      242.191      27.403    -266.080
  H      247.914      33.978    -264.998
  H      243.744      27.840    -265.447
  H      246.848      34.172    -262.414
  H      245.661      36.269    -263.051
  H      247.338      36.240    -263.634
  P      249.298      32.507    -263.274
  C      248.830      30.998    -261.223
  O      249.663      31.268    -262.334
  O      249.250      33.746    -262.251
  O      250.239      32.782    -264.397
  H      250.084      34.246    -262.310
  H      248.953      29.950    -260.936
  H      247.780      31.176    -261.455
  H      249.129      31.632    -260.381
  H      243.849      40.098    -265.455
  H      244.882      39.742    -266.819
  H      245.586      40.153    -265.273

 3  4  5  6  7  8  9  10  11  12  23  26  30  31 0
 6-311+G(2d,p)
 ****
 33  35  36  37  38 0
 6-311+G(2d,p)
 ****
 1  2  13  14  15  16  17  18  19  20  21  22  24  25 0
 3-21G
 ****
 27  28  29  32  34  39  40  41  42  43  44  45  46  47  48  49 0
 3-21G
 ****


