%nproc=1
%NoSave
%Mem=1900MB
#P OB98/GEN NMR

erre ene a

0 1
  C      391.174    -920.755    -333.549
  O      392.383    -920.143    -333.960
  H      391.233    -920.966    -332.475
  H      391.017    -921.700    -334.074
  H      390.334    -920.083    -333.730
  P      392.613    -919.880    -335.520
  C      392.152    -917.333    -335.496
  O      393.122    -918.364    -335.630
  C      392.831    -915.976    -335.429
  O      393.627    -915.863    -334.225
  C      393.799    -915.722    -336.585
  O      393.095    -915.418    -337.765
  C      394.650    -914.602    -336.017
  O      393.987    -913.343    -336.122
  C      394.772    -915.041    -334.532
  N      396.028    -915.743    -334.255
  C      397.183    -914.974    -334.283
  O      397.131    -913.765    -334.517
  N      398.390    -915.594    -334.057
  C      398.430    -916.865    -333.805
  N      399.656    -917.423    -333.595
  C      397.226    -917.720    -333.759
  C      396.069    -917.098    -333.995
  O      391.472    -920.222    -336.432
  O      393.930    -920.732    -335.859
  H      393.947    -913.150    -337.078
  H      393.686    -921.641    -336.123
  H      397.305    -918.773    -333.545
  H      395.129    -917.651    -333.978
  H      394.720    -914.165    -333.870
  H      395.606    -914.532    -336.537
  H      394.439    -916.606    -336.737
  H      392.056    -915.193    -335.395
  H      400.451    -916.801    -333.646
  H      391.604    -917.530    -334.564
  H      399.792    -918.377    -333.308
  H      391.438    -917.356    -336.325
  P      393.439    -916.173    -339.142
  C      391.072    -917.181    -339.446
  O      392.049    -916.251    -339.942
  O      394.174    -917.450    -338.988
  O      394.253    -915.054    -339.978
  H      395.179    -914.946    -339.607
  H      390.196    -917.140    -340.060
  H      390.815    -916.925    -338.439
  H      391.478    -918.171    -339.470

 6  7  8  9  10  11  12  13  14  15  16  26  30  31  32  33  35 0
 6-311+G(2d,p)
 ****
 37  38 0
 6-311+G(2d,p)
 ****
 1  2  3  4  5  17  18  19  20  21  22  23  24  25 0
 3-21G
 ****
 27  28  29  34  36  39  40  41  42  43  44  45  46 0
 3-21G
 ****


