%nproc=1
%NoSave
%Mem=1900MB
#P OB98/GEN NMR

erre ene a

0 1
  C     -109.679    -193.437      55.257
  O     -109.409    -192.052      55.269
  H     -110.595    -193.621      55.828
  H     -108.861    -193.980      55.734
  H     -109.825    -193.804      54.238
  P     -108.288    -191.470      54.281
  C     -106.376    -191.336      56.008
  O     -106.882    -191.988      54.853
  C     -105.025    -190.688      55.701
  O     -104.467    -190.175      56.950
  C     -103.996    -191.667      55.096
  O     -103.169    -190.947      54.173
  C     -103.193    -192.054      56.321
  O     -101.936    -192.581      55.981
  C     -103.142    -190.725      57.072
  N     -102.741    -190.909      58.462
  C     -101.389    -190.753      58.753
  O     -100.538    -190.482      57.909
  N     -101.024    -190.993      60.050
  C     -101.837    -191.471      61.033
  O     -101.439    -191.743      62.158
  C     -103.248    -191.669      60.656
  C     -103.629    -191.380      59.410
  O     -108.349    -190.002      54.014
  O     -108.448    -192.340      52.947
  H     -101.419    -191.920      55.486
  H     -108.060    -191.867      52.185
  H     -100.048    -190.870      60.278
  H     -103.918    -192.062      61.408
  H     -104.655    -191.530      59.089
  H     -102.445    -190.025      56.587
  H     -103.729    -192.812      56.900
  H     -104.459    -192.522      54.598
  H     -105.182    -189.823      55.043
  H     -106.259    -192.085      56.800
  H     -107.090    -190.575      56.342
  P     -103.301    -191.149      52.585
  C     -102.680    -193.635      52.397
  O     -103.713    -192.666      52.243
  O     -102.127    -190.650      51.805
  O     -104.613    -190.315      52.190
  H     -104.423    -189.781      51.394
  H     -103.059    -194.603      52.145
  H     -102.341    -193.637      53.412
  H     -101.864    -193.392      51.749

 6  7  8  9  10  11  12  13  14  15  16  26  31  32  33  34  35 0
 6-311+G(2d,p)
 ****
 36  37 0
 6-311+G(2d,p)
 ****
 1  2  3  4  5  17  18  19  20  21  22  23  24  25 0
 3-21G
 ****
 27  28  29  30  38  39  40  41  42  43  44  45 0
 3-21G
 ****


