%nproc=1
%NoSave
%Mem=1900MB
#P OB98/GEN NMR

erre ene a

0 1
  C      114.037    -228.928    -399.893
  O      112.606    -228.871    -399.863
  P      111.923    -227.531    -399.301
  C      110.273    -227.189    -401.312
  O      110.446    -227.491    -399.935
  C      108.941    -227.759    -401.828
  O      109.020    -229.218    -401.885
  C      107.716    -227.392    -400.978
  O      106.623    -227.184    -401.893
  C      107.496    -228.644    -400.157
  O      106.149    -228.735    -399.671
  C      107.885    -229.729    -401.170
  N      108.181    -231.018    -400.542
  C      107.429    -232.111    -400.960
  O      106.481    -232.019    -401.765
  N      107.749    -233.317    -400.398
  C      108.672    -233.518    -399.414
  O      108.922    -234.624    -398.939
  C      109.361    -232.312    -398.934
  C      109.076    -231.138    -399.485
  O      112.731    -226.411    -400.104
  O      111.992    -227.422    -397.811
  H      112.950    -226.663    -401.022
  H      106.052    -229.594    -399.199
  H      107.229    -234.132    -400.710
  H      110.046    -232.417    -398.100
  H      109.538    -230.217    -399.148
  H      107.074    -229.881    -401.893
  H      108.177    -228.663    -399.296
  H      107.876    -226.494    -400.368
  H      108.812    -227.393    -402.867
  H      111.096    -227.620    -401.899
  H      110.330    -226.104    -401.455
  P      106.257    -225.664    -402.285
  C      106.198    -226.054    -404.867
  O      105.502    -225.727    -403.691
  O      107.708    -225.100    -402.668
  O      105.594    -224.885    -401.194
  H      108.201    -225.696    -403.257
  H      105.489    -226.268    -405.662
  H      106.846    -226.933    -404.731
  H      106.824    -225.203    -405.184
  H      114.348    -229.872    -400.288
  H      114.419    -228.813    -398.900
  H      114.412    -228.141    -400.513

 3  4  5  6  7  8  9  10  11  12  13  24  28  29  30  31  32 0
 6-311+G(2d,p)
 ****
 33  34 0
 6-311+G(2d,p)
 ****
 1  2  14  15  16  17  18  19  20  21  22  23  25  26  27 0
 3-21G
 ****
 35  36  37  38  39  40  41  42  43  44  45 0
 3-21G
 ****


