%nproc=1
%NoSave
%Mem=1900MB
#P OB98/GEN NMR

erre ene a

0 1
  C        2.576     -21.423      96.256
  O        1.821     -21.360      97.447
  H        2.858     -22.462      96.071
  H        3.486     -20.830      96.372
  H        1.998     -21.056      95.404
  P        0.973     -20.025      97.709
  C       -0.923     -20.184      95.944
  O       -0.545     -20.357      97.302
  C       -2.236     -20.913      95.659
  O       -2.047     -22.335      95.934
  C       -3.423     -20.427      96.508
  O       -4.611     -20.468      95.708
  C       -3.533     -21.498      97.576
  O       -4.835     -21.563      98.146
  C       -3.144     -22.737      96.776
  N       -4.788     -27.135      98.544
  C       -5.277     -26.337      97.529
  N       -6.417     -26.736      96.927
  N       -4.698     -25.232      97.139
  C       -3.554     -24.958      97.812
  C       -2.969     -25.662      98.835
  C       -3.629     -26.876      99.271
  O       -3.258     -27.613     100.177
  N       -1.847     -25.019      99.295
  C       -1.768     -23.920      98.564
  N       -2.783     -23.838      97.652
  O        1.474     -19.056      96.537
  O        1.151     -19.408      99.055
  H       -4.954     -20.783      98.726
  H        2.193     -18.484      96.865
  H       -5.281     -27.968      98.817
  H       -1.017     -23.152      98.669
  H       -3.958     -23.095      96.132
  H       -2.811     -21.304      98.379
  H       -6.903     -27.590      97.151
  H       -3.291     -19.422      96.922
  H       -6.765     -26.181      96.155
  H       -2.463     -20.823      94.590
  H       -0.140     -20.595      95.298
  H       -1.028     -19.115      95.733
  P       -5.705     -19.317      95.923
  C       -5.385     -18.429      93.497
  O       -6.288     -18.891      94.491
  O       -4.819     -18.052      96.348
  O       -6.729     -19.640      96.959
  H       -5.310     -17.505      96.988
  H       -5.927     -18.187      92.607
  H       -4.669     -19.195      93.282
  H       -4.878     -17.557      93.854

 6  7  8  9  10  11  12  13  14  15  26  29  33  34 0
 6-311+G(2d,p)
 ****
 36  38  39  40  41 0
 6-311+G(2d,p)
 ****
 1  2  3  4  5  16  17  18  19  20  21  22  23  24  25 0
 3-21G
 ****
 27  28  30  31  32  35  37  42  43  44  45  46  47 0
 3-21G
 ****
 48  49 0
 3-21G
 ****


