%nproc=1
%NoSave
%Mem=1900MB
#P OB98/GEN NMR

erre ene a

0 1
  C       88.040    -335.951     151.859
  O       88.972    -336.359     150.880
  H       87.041    -335.960     151.417
  H       88.265    -334.934     152.191
  H       88.049    -336.632     152.714
  P       90.492    -336.609     151.318
  C       90.099    -339.152     151.106
  O       90.560    -338.089     151.927
  C       89.966    -340.447     151.917
  O       88.975    -340.237     152.968
  C       89.498    -341.663     151.093
  O       90.069    -342.828     151.703
  C       87.997    -341.600     151.317
  O       87.337    -342.764     150.889
  C       87.982    -341.274     152.816
  N       86.697    -340.839     153.348
  C       85.710    -341.805     153.525
  O       85.847    -343.000     153.269
  N       84.516    -341.350     154.019
  C       84.224    -340.062     154.359
  O       83.145    -339.719     154.827
  C       85.303    -339.088     154.142
  C       86.473    -339.513     153.660
  O       91.107    -335.547     152.168
  O       91.265    -336.766     149.923
  H       91.735    -335.936     149.715
  H       87.466    -342.867     149.921
  H       83.791    -342.037     154.160
  H       85.101    -338.054     154.390
  H       87.289    -338.819     153.499
  H       88.331    -342.139     153.388
  H       87.568    -340.781     150.734
  H       89.802    -341.613     150.044
  H       90.920    -340.652     152.416
  H       90.822    -339.297     150.297
  H       89.130    -338.878     150.674
  P       91.625    -343.209     151.597
  C       92.127    -343.021     154.130
  O       92.393    -342.516     152.826
  O       92.233    -342.909     150.268
  O       91.702    -344.773     151.928
  H       92.488    -345.159     151.498
  H       92.700    -342.473     154.848
  H       92.396    -344.056     154.173
  H       91.085    -342.914     154.348

 6  7  8  9  10  11  12  13  14  15  16  27  31  32  33  34  35 0
 6-311+G(2d,p)
 ****
 36  37 0
 6-311+G(2d,p)
 ****
 1  2  3  4  5  17  18  19  20  21  22  23  24  25 0
 3-21G
 ****
 26  28  29  30  38  39  40  41  42  43  44  45 0
 3-21G
 ****


