%nproc=1
%NoSave
%Mem=1900MB
#P OB98/GEN NMR

erre ene a

0 1
  C     -221.114     599.072     983.077
  O     -222.187     599.928     983.403
  H     -220.293     599.264     983.786
  H     -220.748     599.280     982.068
  H     -221.414     598.026     983.167
  P     -223.514     599.894     982.501
  C     -225.472     598.240     982.349
  O     -224.467     598.800     983.191
  C     -226.691     597.798     983.155
  O     -226.268     596.915     984.234
  C     -227.456     598.977     983.805
  O     -228.859     598.814     983.568
  C     -227.170     598.819     985.288
  O     -228.166     599.413     986.120
  C     -227.031     597.290     985.399
  N     -226.384     596.886     986.642
  C     -227.051     595.913     987.396
  O     -228.121     595.452     987.004
  N     -226.523     595.538     988.604
  C     -225.451     596.119     989.038
  N     -224.999     595.724     990.270
  C     -224.728     597.173     988.288
  C     -225.245     597.500     987.111
  O     -223.277     599.699     981.040
  O     -224.268     601.274     982.824
  H     -227.827     599.444     987.037
  H     -224.877     601.489     982.083
  H     -223.836     597.628     988.710
  H     -224.789     598.262     986.489
  H     -228.013     596.808     985.346
  H     -226.203     599.292     985.526
  H     -227.138     599.953     983.431
  H     -227.346     597.205     982.509
  H     -225.524     595.006     990.753
  H     -225.038     597.389     981.802
  H     -224.186     596.119     990.723
  H     -225.784     599.001     981.621
  P     -229.534     599.903     982.607
  C     -229.089     600.561     980.126
  O     -229.176     599.518     981.080
  O     -228.689     601.235     982.886
  O     -231.002     600.121     982.877
  H     -229.232     601.884     983.358
  H     -228.846     600.149     979.169
  H     -228.327     601.251     980.421
  H     -230.028     601.070     980.068

 6  7  8  9  10  11  12  13  14  15  16  26  30  31  32  33  35 0
 6-311+G(2d,p)
 ****
 37  38 0
 6-311+G(2d,p)
 ****
 1  2  3  4  5  17  18  19  20  21  22  23  24  25 0
 3-21G
 ****
 27  28  29  34  36  39  40  41  42  43  44  45  46 0
 3-21G
 ****


