%nproc=1
%NoSave
%Mem=1900MB
#P OB98/GEN NMR

erre ene a

0 1
  C        0.539    -202.686    -511.722
  O        0.901    -204.055    -511.832
  P       -0.265    -205.150    -511.659
  C       -0.816    -205.085    -514.204
  O       -1.296    -204.925    -512.873
  C       -1.385    -206.348    -514.845
  O       -2.840    -206.325    -514.714
  C       -1.060    -206.509    -516.338
  O       -0.906    -207.910    -516.584
  C       -2.323    -205.972    -516.997
  O       -2.468    -206.344    -518.361
  C       -3.381    -206.519    -516.041
  N       -7.881    -206.539    -518.480
  C       -6.828    -207.391    -518.520
  N       -5.666    -207.324    -517.837
  C       -5.649    -206.244    -517.033
  C       -6.634    -205.281    -516.899
  C       -7.797    -205.454    -517.671
  N       -8.867    -204.581    -517.633
  N       -6.250    -204.308    -515.998
  C       -5.052    -204.677    -515.598
  N       -4.657    -205.849    -516.178
  O       -1.072    -204.618    -510.387
  O        0.213    -206.558    -511.478
  H       -2.888    -207.225    -518.422
  H       -1.364    -205.360    -509.822
  H       -6.934    -208.238    -519.191
  H       -4.430    -204.126    -514.902
  H       -3.549    -207.593    -516.184
  H       -2.299    -204.877    -516.969
  H       -0.145    -205.989    -516.642
  H       -1.023    -207.219    -514.280
  H        0.279    -205.169    -514.185
  H       -9.559    -204.684    -518.362
  H       -8.711    -203.682    -517.190
  H       -1.069    -204.192    -514.789
  P       -0.052    -208.389    -517.854
  C        2.013    -208.568    -516.333
  O        1.457    -207.970    -517.486
  O       -0.450    -207.269    -518.924
  O       -0.284    -209.791    -518.304
  H       -0.339    -206.369    -518.563
  H        3.065    -208.273    -516.259
  H        1.956    -209.657    -516.403
  H        1.487    -208.220    -515.439
  H        1.407    -202.075    -511.858
  H        0.123    -202.504    -510.753
  H       -0.186    -202.447    -512.472

 3  4  5  6  7  8  9  10  11  12  22  25  29  30  31  32 0
 6-311+G(2d,p)
 ****
 33  36  37 0
 6-311+G(2d,p)
 ****
 1  2  13  14  15  16  17  18  19  20  21  23  24  26 0
 3-21G
 ****
 27  28  34  35  38  39  40  41  42  43  44  45  46  47  48 0
 3-21G
 ****


