%nproc=1
%NoSave
%Mem=1900MB
#P OB98/GEN NMR

erre ene a

0 1
  C      803.647    -892.140    -384.130
  O      802.591    -892.530    -383.232
  P      801.347    -893.440    -383.659
  C      801.885    -895.450    -382.080
  O      801.734    -894.960    -383.396
  C      803.320    -895.950    -381.768
  O      804.237    -894.800    -381.752
  C      803.385    -896.560    -380.378
  O      803.008    -897.910    -380.199
  C      804.788    -896.220    -379.874
  O      805.729    -897.270    -380.130
  C      805.166    -894.960    -380.687
  N      807.970    -891.730    -377.874
  C      808.357    -892.920    -378.474
  N      809.618    -893.310    -378.295
  N      807.545    -893.640    -379.217
  C      806.261    -893.180    -379.242
  C      805.768    -892.030    -378.673
  C      806.688    -891.180    -377.912
  O      806.414    -890.140    -377.371
  N      804.427    -891.890    -378.908
  C      804.107    -892.960    -379.612
  N      805.207    -893.770    -379.847
  O      800.714    -893.100    -384.990
  O      800.249    -893.120    -382.515
  H      806.595    -896.980    -379.787
  H      799.375    -893.180    -382.946
  H      808.632    -891.200    -377.344
  H      803.113    -893.190    -379.990
  H      806.154    -895.060    -381.136
  H      804.788    -896.060    -378.789
  H      810.249    -892.850    -377.650
  H      802.707    -895.970    -379.732
  H      809.839    -894.270    -378.549
  H      803.691    -896.600    -382.562
  H      801.181    -896.270    -381.951
  H      801.592    -894.680    -381.356
  P      801.503    -898.460    -380.107
  C      801.203    -899.050    -382.599
  O      800.812    -898.180    -381.531
  O      800.748    -897.440    -379.140
  O      801.377    -899.880    -379.605
  H      799.910    -897.830    -378.818
  H      800.914    -898.590    -383.537
  H      800.678    -900.000    -382.510
  H      802.292    -899.210    -382.592
  H      804.357    -891.535    -383.605
  H      803.235    -891.581    -384.944
  H      804.134    -893.014    -384.509

 3  4  5  6  7  8  9  10  11  12  23  26  30  31 0
 6-311+G(2d,p)
 ****
 33  35  36  37  38 0
 6-311+G(2d,p)
 ****
 1  2  13  14  15  16  17  18  19  20  21  22  24  25 0
 3-21G
 ****
 27  28  29  32  34  39  40  41  42  43  44  45  46  47  48  49 0
 3-21G
 ****


