%nproc=1
%NoSave
%Mem=1900MB
#P OB98/GEN NMR

erre ene a

0 1
  C     -197.635    -410.894     435.806
  O     -198.661    -410.839     434.837
  H     -197.645    -409.965     436.384
  H     -196.663    -410.994     435.317
  H     -197.799    -411.735     436.486
  P     -198.817    -412.111     433.874
  C     -196.803    -411.682     432.296
  O     -197.335    -412.463     433.355
  C     -195.287    -411.855     432.213
  O     -194.991    -413.223     431.816
  C     -194.610    -410.923     431.199
  O     -193.349    -410.501     431.730
  C     -194.363    -411.830     430.009
  O     -193.309    -411.356     429.177
  C     -194.065    -413.150     430.714
  N     -191.687    -417.212     428.938
  C     -191.288    -416.278     429.873
  N     -190.063    -416.443     430.417
  N     -192.026    -415.260     430.239
  C     -193.235    -415.232     429.632
  C     -193.745    -416.088     428.686
  C     -192.911    -417.197     428.273
  O     -193.199    -418.045     427.434
  N     -194.999    -415.695     428.289
  C     -195.247    -414.606     428.994
  N     -194.207    -414.289     429.826
  O     -199.527    -411.509     432.571
  O     -199.574    -413.263     434.445
  H     -193.435    -411.743     428.284
  H     -200.086    -412.182     432.137
  H     -191.077    -417.968     428.684
  H     -196.153    -414.018     428.942
  H     -193.044    -413.186     431.118
  H     -195.272    -411.910     429.400
  H     -189.453    -417.219     430.208
  H     -195.209    -410.047     430.941
  H     -189.756    -415.774     431.117
  H     -194.866    -411.721     433.216
  H     -197.039    -410.628     432.477
  H     -197.262    -411.994     431.351
  P     -192.871    -409.006     431.409
  C     -192.315    -408.676     428.895
  O     -193.307    -408.637     429.908
  O     -191.275    -409.154     431.307
  O     -193.254    -408.010     432.453
  H     -190.859    -408.746     432.084
  H     -192.753    -408.408     427.956
  H     -191.910    -409.664     428.830
  H     -191.534    -407.985     429.134

 6  7  8  9  10  11  12  13  14  15  26  29  33  34 0
 6-311+G(2d,p)
 ****
 36  38  39  40  41 0
 6-311+G(2d,p)
 ****
 1  2  3  4  5  16  17  18  19  20  21  22  23  24  25 0
 3-21G
 ****
 27  28  30  31  32  35  37  42  43  44  45  46  47 0
 3-21G
 ****
 48  49 0
 3-21G
 ****


