%nproc=1
%NoSave
%Mem=1900MB
#P OB98/GEN NMR

erre ene a

0 1
  C     -568.630     -99.392     177.162
  O     -569.473     -98.655     176.294
  H     -567.958     -98.698     177.671
  H     -568.036    -100.110     176.587
  H     -569.228     -99.921     177.912
  P     -570.563     -99.490     175.462
  C     -568.889    -100.378     173.678
  O     -569.769    -100.690     174.753
  C     -569.266    -101.194     172.452
  O     -568.765    -102.541     172.585
  C     -570.763    -101.330     172.234
  O     -571.341    -100.175     171.663
  C     -570.822    -102.551     171.328
  O     -570.600    -102.198     169.954
  C     -569.659    -103.408     171.844
  N     -570.835    -108.382     171.960
  C     -570.313    -107.599     170.989
  N     -570.024    -106.278     171.042
  C     -570.283    -105.784     172.265
  C     -570.806    -106.464     173.354
  C     -571.087    -107.826     173.173
  N     -571.628    -108.619     174.154
  N     -570.970    -105.603     174.423
  C     -570.547    -104.433     173.996
  N     -570.120    -104.493     172.693
  O     -570.929     -98.507     174.254
  O     -571.769     -99.897     176.238
  H     -571.337    -101.608     169.699
  H     -571.770     -98.050     174.451
  H     -570.129    -108.089     170.038
  H     -570.539    -103.515     174.573
  H     -569.080    -103.857     171.033
  H     -571.789    -103.044     171.393
  H     -571.259    -101.580     173.188
  H     -568.788    -100.741     171.563
  H     -567.862    -100.614     173.972
  H     -568.954     -99.302     173.459
  H     -571.867    -109.570     173.933
  H     -571.927    -108.189     175.023
  P     -572.760     -99.679     172.232
  C     -574.204    -101.498     171.040
  O     -573.734    -100.955     172.269
  O     -573.352     -98.780     171.055
  O     -572.670     -98.930     173.522
  H     -573.861     -98.027     171.439
  H     -574.837    -102.337     171.240
  H     -573.371    -101.813     170.447
  H     -574.758    -100.752     170.509

 6  7  8  9  10  11  12  13  14  15  25  28  32  33  34  35 0
 6-311+G(2d,p)
 ****
 36  37  40 0
 6-311+G(2d,p)
 ****
 1  2  3  4  5  16  17  18  19  20  21  22  23  24 0
 3-21G
 ****
 26  27  29  30  31  38  39 41  42  43  44  45  46  47  48 0
 3-21G
 ****


