%nproc=1
%NoSave
%Mem=1900MB
#P OB98/GEN NMR

erre ene a

0 1
  C      -49.379    -386.823    -406.950
  O      -48.397    -387.815    -406.752
  H      -50.116    -386.890    -406.146
  H      -49.891    -386.994    -407.901
  H      -48.939    -385.822    -406.942
  P      -47.051    -387.767    -407.623
  C      -47.425    -390.002    -408.867
  O      -46.651    -389.299    -407.906
  C      -47.646    -391.445    -408.409
  O      -46.479    -392.227    -408.794
  C      -47.820    -391.586    -406.884
  O      -48.735    -392.659    -406.628
  C      -46.424    -391.978    -406.453
  O      -46.416    -392.595    -405.186
  C      -46.005    -392.893    -407.606
  N      -44.563    -393.113    -407.619
  C      -44.130    -394.433    -407.534
  O      -44.894    -395.399    -407.440
  N      -42.778    -394.621    -407.488
  C      -41.837    -393.629    -407.404
  O      -40.642    -393.849    -407.280
  C      -42.354    -392.249    -407.441
  C      -43.675    -392.059    -407.549
  O      -45.947    -386.923    -407.076
  O      -47.532    -387.276    -409.069
  H      -45.500    -392.749    -404.894
  H      -46.786    -386.899    -409.570
  H      -42.447    -395.570    -407.440
  H      -41.642    -391.440    -407.360
  H      -44.092    -391.059    -407.564
  H      -46.518    -393.860    -407.539
  H      -45.780    -391.096    -406.395
  H      -48.181    -390.666    -406.408
  H      -48.503    -391.864    -408.947
  H      -46.876    -389.989    -409.818
  H      -48.387    -389.496    -409.002
  P      -49.909    -392.529    -405.535
  C      -49.284    -394.541    -404.068
  O      -50.271    -393.968    -404.920
  O      -51.099    -391.750    -406.008
  O      -49.222    -391.765    -404.304
  H      -49.816    -391.061    -403.988
  H      -49.625    -395.492    -403.716
  H      -49.113    -393.893    -403.234
  H      -48.372    -394.669    -404.614

 6  7  8  9  10  11  12  13  14  15  16  26  31  32  33  34  35 0
 6-311+G(2d,p)
 ****
 36  37 0
 6-311+G(2d,p)
 ****
 1  2  3  4  5  17  18  19  20  21  22  23  24  25 0
 3-21G
 ****
 27  28  29  30  38  39  40  41  42  43  44  45 0
 3-21G
 ****


