%nproc=1
%NoSave
%Mem=1900MB
#P OB98/GEN NMR

erre ene a

0 1
  C      803.847    -893.722    -548.131
  O      804.684    -894.082    -547.060
  H      803.160    -894.552    -548.334
  H      804.432    -893.522    -549.038
  H      803.254    -892.832    -547.867
  P      805.798    -893.012    -546.628
  C      807.656    -894.342    -547.821
  O      807.170    -893.852    -546.580
  C      809.125    -894.742    -547.703
  O      809.907    -893.552    -547.432
  C      809.398    -895.762    -546.587
  O      810.402    -896.682    -547.025
  C      809.941    -894.902    -545.457
  O      810.793    -895.652    -544.561
  C      810.679    -893.802    -546.229
  N      813.997    -890.612    -544.015
  C      814.178    -891.662    -544.837
  N      813.216    -892.452    -545.399
  C      811.991    -892.012    -545.061
  C      811.653    -890.972    -544.247
  C      812.726    -890.242    -543.688
  N      812.550    -889.182    -542.836
  N      810.270    -890.862    -544.103
  C      809.799    -891.852    -544.848
  N      810.795    -892.582    -545.441
  O      805.495    -892.222    -545.396
  O      805.966    -892.152    -547.963
  H      810.328    -896.442    -544.281
  H      806.003    -892.732    -548.765
  H      815.197    -891.912    -545.074
  H      808.742    -892.082    -544.990
  H      811.696    -894.092    -546.531
  H      809.109    -894.472    -544.872
  H      808.496    -896.302    -546.285
  H      809.473    -895.122    -548.677
  H      807.544    -893.572    -548.609
  H      813.384    -888.712    -542.493
  H      811.612    -888.872    -542.591
  H      807.056    -895.212    -548.109
  P      810.020    -897.752    -548.160
  C      808.311    -899.042    -546.718
  O      809.544    -899.102    -547.447
  O      811.010    -897.912    -549.267
  O      808.641    -897.152    -548.727
  H      808.605    -897.302    -549.706
  H      808.103    -900.000    -546.290
  H      807.518    -898.767    -547.381
  H      808.393    -898.313    -545.938

 6  7  8  9  10  11  12  13  14  15  25  28  32  33  34  35 0
 6-311+G(2d,p)
 ****
 36  39  40 0
 6-311+G(2d,p)
 ****
 1  2  3  4  5  16  17  18  19  20  21  22  23  24 0
 3-21G
 ****
 26  27  29  30  31  37  38  41  42  43  44  45  46  47 0
 3-21G
 ****
 48 0
 3-21G
 ****


