%nproc=1
%NoSave
%Mem=1900MB
#P OB98/GEN NMR

erre ene a

0 1
  C      594.019     -10.451    -362.991
  O      592.832      -9.989    -362.376
  H      594.110     -11.535    -362.863
  H      593.969     -10.231    -364.062
  H      594.893      -9.950    -362.572
  P      592.708     -10.209    -360.788
  C      590.126      -9.915    -360.788
  O      591.229     -10.779    -360.542
  C      588.927     -10.733    -361.272
  O      589.223     -11.340    -362.547
  C      588.546     -11.885    -360.348
  O      587.753     -11.449    -359.250
  C      587.734     -12.745    -361.300
  O      586.417     -12.176    -361.471
  C      588.547     -12.632    -362.596
  N      589.441     -17.233    -364.636
  C      588.347     -16.452    -364.616
  N      588.190     -15.242    -364.056
  C      589.315     -14.847    -363.450
  C      590.512     -15.537    -363.364
  C      590.562     -16.795    -364.004
  N      591.682     -17.597    -364.003
  N      591.445     -14.834    -362.622
  C      590.821     -13.713    -362.299
  N      589.526     -13.680    -362.758
  O      592.628      -8.716    -360.205
  O      593.801     -11.008    -360.156
  H      585.982     -12.211    -360.598
  H      592.869      -8.713    -359.263
  H      587.477     -16.855    -365.146
  H      591.257     -12.909    -361.725
  H      587.905     -12.634    -363.490
  H      587.593     -13.770    -360.938
  H      589.428     -12.452    -360.012
  H      588.081     -10.046    -361.416
  H      590.401      -9.187    -361.560
  H      591.550     -18.546    -364.329
  H      592.455     -17.347    -363.416
  H      589.872      -9.377    -359.867
  P      587.466     -12.519    -358.083
  C      585.938     -10.902    -356.721
  O      586.037     -12.121    -357.466
  O      588.503     -12.096    -356.934
  O      587.622     -13.953    -358.489
  H      588.726     -12.859    -356.381
  H      584.933     -10.775    -356.377
  H      586.207     -10.078    -357.348
  H      586.600     -10.942    -355.881

 6  7  8  9  10  11  12  13  14  15  25  28  32  33  34  35 0
 6-311+G(2d,p)
 ****
 36  39  40 0
 6-311+G(2d,p)
 ****
 1  2  3  4  5  16  17  18  19  20  21  22  23  24 0
 3-21G
 ****
 26  27  29  30  31  37  38  41  42  43  44  45  46  47 0
 3-21G
 ****
 48 0
 3-21G
 ****


