%nproc=1
%NoSave
%Mem=1900MB
#P OB98/GEN NMR

erre ene a

0 1
  C      -36.540     -31.755     -29.236
  O      -35.928     -33.032     -29.122
  P      -34.846     -33.445     -30.232
  C      -36.754     -34.063     -31.867
  O      -35.574     -33.298     -31.657
  C      -36.846     -34.533     -33.315
  O      -37.907     -35.522     -33.423
  C      -37.153     -33.415     -34.324
  O      -36.319     -33.577     -35.483
  C      -38.586     -33.698     -34.743
  O      -38.876     -33.182     -36.039
  C      -38.606     -35.224     -34.650
  N      -41.463     -38.876     -36.655
  C      -40.094     -38.714     -36.684
  N      -39.392     -39.623     -37.398
  N      -39.463     -37.744     -36.073
  C      -40.289     -36.927     -35.372
  C      -41.659     -36.989     -35.259
  C      -42.348     -38.033     -35.992
  O      -43.565     -38.177     -36.078
  N      -42.139     -35.994     -34.447
  C      -41.064     -35.327     -34.073
  N      -39.921     -35.823     -34.645
  O      -34.716     -35.027     -30.032
  O      -33.522     -32.773     -30.110
  H      -38.708     -32.222     -36.007
  H      -33.782     -35.262     -29.865
  H      -41.901     -39.630     -37.158
  H      -41.069     -34.464     -33.417
  H      -38.039     -35.668     -35.482
  H      -39.271     -33.240     -34.023
  H      -39.811     -40.413     -37.861
  H      -37.033     -32.402     -33.922
  H      -38.385     -39.532     -37.412
  H      -35.908     -35.042     -33.578
  H      -37.631     -33.449     -31.633
  H      -36.739     -34.928     -31.192
  P      -35.112     -32.530     -35.635
  C      -36.094     -31.217     -37.665
  O      -35.757     -31.215     -36.287
  O      -34.229     -33.151     -36.816
  O      -34.330     -32.321     -34.381
  H      -33.305     -32.842     -36.750
  H      -36.016     -32.219     -38.107
  H      -35.421     -30.543     -38.199
  H      -37.122     -30.862     -37.780
  H      -37.234     -31.619     -28.433
  H      -37.058     -31.690     -30.170
  H      -35.789     -30.994     -29.191

 3  4  5  6  7  8  9  10  11  12  23  26  30  31  33  0
 6-311+G(2d,p)
 ****
 35  36  37  38 0
 6-311+G(2d,p)
 ****
 1  2  13  14  15  16  17  18  19  20  21  22  24  25  27  28  29 0
 3-21G
 ****
 32  34  39  40  41  42  43  44  45  46  47  48  49 0
 3-21G
 ****


