%nproc=1
%NoSave
%Mem=1900MB
#P OB98/GEN NMR

erre ene a

0 1
  C      -74.683     320.601     130.021
  O      -75.324     320.597     128.743
  P      -76.656     321.467     128.534
  C      -75.459     323.737     128.385
  O      -76.285     322.795     127.708
  C      -74.743     324.689     127.416
  O      -73.654     324.013     126.728
  C      -75.649     325.296     126.334
  O      -75.193     326.634     126.097
  C      -75.363     324.407     125.135
  O      -75.767     325.005     123.906
  C      -73.859     324.183     125.312
  N      -73.370     323.043     124.553
  C      -73.321     323.168     123.163
  O      -73.783     324.180     122.621
  N      -72.785     322.146     122.422
  C      -72.469     321.033     123.008
  N      -71.922     320.044     122.246
  C      -72.676     320.793     124.452
  C      -73.099     321.839     125.160
  O      -77.469     321.699     129.767
  O      -77.480     320.605     127.458
  H      -75.328     325.879     123.819
  H      -78.437     320.693     127.648
  H      -72.475     319.824     124.882
  H      -73.279     321.768     126.220
  H      -73.293     325.076     125.005
  H      -75.911     323.461     125.242
  H      -76.707     325.325     126.621
  H      -74.294     325.502     128.006
  H      -71.808     320.214     121.254
  H      -74.707     323.200     128.978
  H      -71.602     319.166     122.639
  H      -76.068     324.297     129.105
  P      -75.818     327.834     126.961
  C      -74.263     328.232     129.008
  O      -74.609     328.597     127.689
  O      -76.489     327.037     128.183
  O      -76.840     328.682     126.271
  H      -77.218     327.584     128.554
  H      -73.271     328.638     129.236
  H      -74.230     327.149     129.130
  H      -74.988     328.659     129.717
  H      -73.816     319.974     129.987
  H      -75.362     320.232     130.762
  H      -74.391     321.600     130.271

 3  4  5  6  7  8  9  10  11  12  13  23  27  28  29  30  32 0
 6-311+G(2d,p)
 ****
 34  35 0
 6-311+G(2d,p)
 ****
 1  2  14  15  16  17  18  19  20  21  22  24  25  26 0
 3-21G
 ****
 31  33  36  37  38  39  40  41  42  43  44  45  46 0
 3-21G
 ****


