%nproc=1
%NoSave
%Mem=1900MB
#P OB98/GEN NMR

erre ene a

0 1
  C      193.817      81.184     -37.749
  O      192.518      80.630     -37.815
  H      193.907      82.016     -38.453
  H      193.988      81.557     -36.738
  H      194.566      80.420     -37.975
  P      192.079      79.994     -39.221
  C      191.796      77.523     -38.483
  O      192.578      78.469     -39.195
  C      192.416      76.134     -38.599
  O      192.525      75.753     -39.985
  C      193.826      76.016     -38.029
  O      193.814      75.878     -36.617
  C      194.301      74.742     -38.709
  O      193.756      73.595     -38.029
  C      193.673      74.872     -40.106
  N      197.977      74.050     -42.745
  C      197.287      73.275     -41.882
  N      196.136      73.555     -41.235
  C      195.693      74.777     -41.569
  C      196.274      75.674     -42.448
  C      197.477      75.273     -43.051
  N      198.212      76.105     -43.882
  N      195.532      76.837     -42.523
  C      194.532      76.649     -41.688
  N      194.582      75.419     -41.093
  O      193.075      80.705     -40.257
  O      190.650      80.202     -39.595
  H      192.786      73.667     -38.090
  H      192.620      81.462     -40.670
  H      197.717      72.299     -41.681
  H      193.757      77.374     -41.480
  H      193.306      73.913     -40.485
  H      195.388      74.633     -38.707
  H      194.461      76.850     -38.348
  H      191.739      75.421     -38.111
  H      190.783      77.501     -38.896
  H      199.210      75.917     -43.863
  H      197.929      77.077     -43.855
  H      191.746      77.830     -37.433
  P      195.227      75.820     -35.860
  C      195.971      78.244     -36.372
  O      196.191      76.861     -36.614
  O      195.802      74.389     -36.289
  O      195.163      75.954     -34.378
  H      196.006      73.863     -35.492
  H      196.677      78.821     -36.932
  H      196.092      78.447     -35.329
  H      194.978      78.505     -36.673

 6  7  8  9  10  11  12  13  14  15  25  28  32  33  34  35 0
 6-311+G(2d,p)
 ****
 36  39  40 0
 6-311+G(2d,p)
 ****
 1  2  3  4  5  16  17  18  19  20  21  22  23  24 0
 3-21G
 ****
 26  27  29  30  31  37  38  41  42  43  44  45  46  47  48 0
 3-21G
 ****


