%nproc=1
%NoSave
%Mem=1900MB
#P OB98/GEN NMR

erre ene a

0 1
  C      572.114     356.928    1089.549
  O      573.062     356.127    1088.874
  H      572.141     357.949    1089.134
  H      572.353     356.990    1090.611
  H      571.106     356.528    1089.406
  P      573.213     354.591    1089.294
  C      574.961     355.152    1091.149
  O      574.709     354.498    1089.903
  C      576.143     354.499    1091.847
  O      575.975     353.066    1091.968
  C      577.484     354.673    1091.133
  O      578.013     355.990    1091.239
  C      578.317     353.654    1091.888
  O      578.663     354.168    1093.175
  C      577.320     352.478    1092.002
  N      577.467     351.480    1090.939
  C      578.524     350.578    1091.065
  O      579.262     350.623    1092.044
  N      578.730     349.651    1090.062
  C      577.940     349.638    1089.010
  N      578.194     348.701    1088.071
  C      576.828     350.582    1088.843
  C      576.657     351.485    1089.823
  O      572.888     353.583    1088.240
  O      572.325     354.451    1090.620
  H      579.277     353.522    1093.588
  H      572.377     353.511    1090.920
  H      576.231     350.559    1087.934
  H      575.850     352.216    1089.742
  H      577.416     351.959    1092.970
  H      579.248     353.382    1091.380
  H      577.395     354.354    1090.081
  H      576.190     354.896    1092.880
  H      578.959     348.053    1088.216
  H      574.042     355.070    1091.757
  H      577.685     348.650    1087.184
  H      575.177     356.205    1090.979
  P      578.725     356.588    1089.911
  C      580.931     355.201    1090.158
  O      580.307     356.469    1090.165
  O      578.418     358.160    1090.025
  O      578.244     355.994    1088.618
  H      577.646     358.402    1089.449
  H      581.978     355.318    1090.343
  H      580.787     354.738    1089.204
  H      580.500     354.587    1090.921

 6  7  8  9  10  11  12  13  14  15  16  26  30  31  32  33  35 0
 6-311+G(2d,p)
 ****
 37  38 0
 6-311+G(2d,p)
 ****
 1  2  3  4  5  17  18  19  20  21  22  23  24  25 0
 3-21G
 ****
 27  28  29  34  36  39  40  41  42  43  44  45  46 0
 3-21G
 ****


