%nproc=1
%NoSave
%Mem=1900MB
#P OB98/GEN NMR

erre ene a

0 1
  C        0.353     -66.929     -30.984
  O       -1.000     -67.012     -30.589
  H        0.621     -67.852     -31.503
  H        1.004     -66.817     -30.112
  H        0.498     -66.090     -31.668
  P       -1.608     -65.822     -29.699
  C       -1.369     -65.182     -27.200
  O       -0.932     -66.025     -28.254
  C       -0.289     -65.076     -26.126
  O        0.843     -64.321     -26.604
  C       -0.722     -64.359     -24.851
  O       -1.576     -65.137     -24.029
  C        0.636     -64.114     -24.213
  O        1.125     -65.338     -23.637
  C        1.478     -63.707     -25.447
  N        1.570     -62.260     -25.622
  C        2.853     -61.701     -25.567
  O        3.838     -62.414     -25.379
  N        2.988     -60.339     -25.689
  C        1.935     -59.598     -25.833
  N        2.121     -58.251     -25.902
  C        0.567     -60.145     -25.914
  C        0.457     -61.467     -25.797
  O       -3.097     -65.693     -29.696
  O       -0.857     -64.510     -30.223
  H        1.275     -65.959     -24.373
  H       -1.208     -63.741     -29.710
  H       -0.278     -59.482     -26.027
  H       -0.517     -61.942     -25.829
  H        2.491     -64.120     -25.379
  H        0.609     -63.367     -23.415
  H       -1.179     -63.392     -25.083
  H        0.068     -66.092     -25.916
  H        3.067     -57.909     -25.800
  H       -2.292     -65.603     -26.788
  H        1.357     -57.605     -25.734
  H       -1.576     -64.178     -27.582
  P       -2.187     -64.445     -22.714
  C       -1.261     -63.809     -20.364
  O       -1.003     -64.384     -21.633
  O       -3.165     -65.572     -22.141
  O       -2.881     -63.138     -22.933
  H       -4.079     -65.440     -22.460
  H       -0.373     -63.847     -19.768
  H       -2.041     -64.355     -19.877
  H       -1.563     -62.790     -20.489

 6  7  8  9  10  11  12  13  14  15  16  26  30  31  32  33  35 0
 6-311+G(2d,p)
 ****
 37  38 0
 6-311+G(2d,p)
 ****
 1  2  3  4  5  17  18  19  20  21  22  23  24  25 0
 3-21G
 ****
 27  28  29  34  36  39  40  41  42  43  44  45  46 0
 3-21G
 ****


