%nproc=1
%NoSave
%Mem=1900MB
#P OB98/GEN NMR

erre ene a

0 1
  C      374.174     109.315     121.488
  O      375.043     108.409     122.148
  P      374.563     106.931     122.557
  C      376.151     105.841     120.828
  O      374.811     106.030     121.252
  C      376.455     104.348     120.679
  O      376.341     103.718     121.984
  C      375.512     103.603     119.722
  O      376.287     102.593     119.066
  C      374.503     102.976     120.662
  O      373.837     101.860     120.087
  C      375.397     102.638     121.861
  N      374.637     102.463     123.095
  C      374.674     101.209     123.707
  O      375.306     100.280     123.210
  N      373.986     101.033     124.883
  C      373.257     101.996     125.356
  N      372.642     101.791     126.553
  C      373.102     103.299     124.683
  C      373.830     103.466     123.582
  O      373.185     106.852     123.115
  O      375.703     106.405     123.544
  H      373.455     102.137     119.232
  H      375.559     106.686     124.481
  H      372.460     104.059     125.101
  H      373.800     104.398     123.034
  H      375.979     101.732     121.656
  H      373.745     103.716     120.934
  H      375.066     104.262     118.972
  H      377.495     104.239     120.353
  H      372.912     100.957     127.065
  H      376.815     106.261     121.587
  H      372.344     102.572     127.127
  H      376.319     106.373     119.886
  P      375.854     102.143     117.585
  C      377.822     103.241     116.304
  O      376.432     103.219     116.551
  O      374.286     102.497     117.588
  O      376.047     100.702     117.246
  H      373.832     101.927     116.942
  H      378.035     104.026     115.571
  H      378.155     102.286     115.891
  H      378.371     103.462     117.221
  H      374.688     110.236     121.309
  H      373.317     109.499     122.102
  H      373.861     108.894     120.555

 3  4  5  6  7  8  9  10  11  12  13  23  27  28  29  30  32 0
 6-311+G(2d,p)
 ****
 34  35 0
 6-311+G(2d,p)
 ****
 1  2  14  15  16  17  18  19  20  21  22  24  25  26 0
 3-21G
 ****
 31  33  36  37  38  39  40  41  42  43  44  45  46 0
 3-21G
 ****


