%nproc=1
%NoSave
%Mem=1900MB
#P OB98/GEN NMR

erre ene a

0 1
  C       49.314      83.118     244.445
  O       48.340      83.426     245.446
  P       48.820      83.309     246.978
  C       46.868      81.909     247.982
  O       47.501      83.178     247.883
  C       45.622      81.994     248.861
  O       45.961      82.385     250.202
  C       44.599      83.019     248.394
  O       43.806      82.524     247.326
  C       43.759      83.190     249.653
  O       42.784      82.136     249.739
  C       44.804      83.047     250.770
  N       44.862      85.989     254.897
  C       44.321      84.732     254.714
  N       43.735      84.168     255.793
  N       44.351      84.088     253.578
  C       44.996      84.761     252.596
  C       45.571      86.009     252.652
  C       45.503      86.726     253.908
  O       45.937      87.854     254.115
  N       46.139      86.355     251.454
  C       45.934      85.308     250.681
  N       45.230      84.319     251.324
  O       49.344      84.787     247.302
  O       49.873      82.278     247.206
  H       42.173      82.250     248.983
  H       50.019      84.755     248.005
  H       44.804      86.443     255.791
  H       46.274      85.215     249.656
  H       44.441      82.420     251.591
  H       43.206      84.134     249.668
  H       43.740      84.577     256.714
  H       45.083      83.970     248.139
  H       43.364      83.231     255.686
  H       45.162      80.996     248.894
  H       47.563      81.181     248.406
  H       46.616      81.559     246.975
  P       44.069      83.144     245.870
  C       41.559      83.355     245.248
  O       42.799      82.726     244.989
  O       45.255      82.237     245.297
  O       44.422      84.593     245.870
  H       45.795      82.746     244.663
  H       41.684      84.430     245.400
  H       41.099      82.909     246.134
  H       40.900      83.197     244.391
  H       48.877      83.232     243.475
  H       49.647      82.109     244.570
  H       50.147      83.783     244.541

 3  4  5  6  7  8  9  10  11  12  23  26  30  31  33  0
 6-311+G(2d,p)
 ****
 35  36  37  38 0
 6-311+G(2d,p)
 ****
 1  2  13  14  15  16  17  18  19  20  21  22  24  25  27  28  29 0
 3-21G
 ****
 32  34  39  40  41  42  43  44  45  46  47  48  49 0
 3-21G
 ****


