%nproc=1
%NoSave
%Mem=1900MB
#P OB98/GEN NMR

erre ene a

0 1
  C      404.577     420.362    -447.444
  O      403.852     421.322    -448.203
  P      404.561     421.896    -449.530
  C      405.854     423.814    -448.369
  O      404.856     423.471    -449.303
  C      406.263     425.294    -448.505
  O      407.045     425.496    -449.718
  C      405.078     426.256    -448.563
  O      405.477     427.478    -447.931
  C      404.913     426.513    -450.052
  O      404.174     427.703    -450.315
  C      406.382     426.530    -450.486
  N      404.882     428.005    -455.143
  C      404.535     428.427    -453.898
  N      404.962     427.969    -452.709
  C      405.879     426.988    -452.882
  C      406.323     426.450    -454.081
  C      405.784     426.996    -455.255
  N      406.108     426.544    -456.513
  N      407.215     425.424    -453.850
  C      407.322     425.357    -452.526
  N      406.549     426.297    -451.911
  O      403.384     421.879    -450.610
  O      405.736     421.089    -449.976
  H      404.118     427.814    -451.284
  H      403.543     421.175    -451.264
  H      403.820     429.239    -453.859
  H      407.915     424.631    -451.985
  H      406.875     427.495    -450.259
  H      404.393     425.670    -450.511
  H      404.153     425.874    -448.116
  H      406.913     425.560    -447.655
  H      406.746     423.189    -448.509
  H      405.641     426.977    -457.304
  H      406.731     425.769    -456.607
  H      405.500     423.605    -447.361
  P      405.063     427.665    -446.392
  C      403.037     429.234    -446.796
  O      404.351     429.088    -446.280
  O      406.472     427.869    -445.656
  O      404.297     426.509    -445.834
  H      406.402     427.595    -444.721
  H      402.462     429.862    -446.099
  H      402.526     428.274    -446.918
  H      403.087     429.738    -447.761
  H      403.996     420.066    -446.595
  H      405.499     420.792    -447.113
  H      404.781     419.506    -448.053

 3  4  5  6  7  8  9  10  11  12  22  25  29  30  31  32 0
 6-311+G(2d,p)
 ****
 33  36  37 0
 6-311+G(2d,p)
 ****
 1  2  13  14  15  16  17  18  19  20  21  23  24  26 0
 3-21G
 ****
 27  28  34  35  38  39  40  41  42  43  44  45  46  47  48 0
 3-21G
 ****


