%nproc=1
%NoSave
%Mem=1900MB
#P OB98/GEN NMR

erre ene a

0 1
  C     -320.574    -228.107     361.272
  O     -319.310    -227.865     360.683
  H     -321.319    -228.192     360.478
  H     -320.854    -227.279     361.927
  H     -320.554    -229.044     361.845
  P     -318.074    -227.687     361.692
  C     -316.596    -229.377     360.402
  O     -316.754    -228.039     360.846
  C     -315.269    -229.538     359.643
  O     -315.331    -228.884     358.357
  C     -314.065    -228.946     360.378
  O     -313.559    -229.852     361.346
  C     -313.090    -228.723     359.226
  O     -312.418    -229.946     358.864
  C     -314.035    -228.271     358.096
  N     -311.524    -223.903     357.698
  C     -311.062    -225.194     357.723
  N     -309.715    -225.362     357.685
  N     -311.832    -226.251     357.785
  C     -313.151    -225.942     357.850
  C     -313.734    -224.695     357.821
  C     -312.865    -223.536     357.723
  O     -313.215    -222.362     357.641
  N     -315.101    -224.787     357.887
  C     -315.342    -226.079     357.993
  N     -314.180    -226.821     357.993
  O     -318.213    -228.934     362.689
  O     -318.042    -226.391     362.437
  H     -313.042    -230.539     358.417
  H     -317.866    -228.681     363.561
  H     -310.879    -223.134     357.634
  H     -316.323    -226.530     358.073
  H     -313.700    -228.626     357.104
  H     -312.324    -228.004     359.474
  H     -309.077    -224.616     357.967
  H     -314.324    -227.972     360.835
  H     -309.355    -226.309     357.717
  H     -315.122    -230.609     359.462
  H     -317.418    -229.626     359.713
  H     -316.619    -230.054     361.256
  P     -312.591    -229.258     362.490
  C     -313.671    -230.564     364.455
  O     -312.513    -230.365     363.644
  O     -313.464    -228.085     363.149
  O     -311.266    -228.760     361.989
  H     -312.878    -227.482     363.661
  H     -313.473    -231.328     365.178
  H     -314.492    -230.861     363.837
  H     -313.915    -229.652     364.958

 6  7  8  9  10  11  12  13  14  15  26  29  33  34 0
 6-311+G(2d,p)
 ****
 36  38  39  40  41 0
 6-311+G(2d,p)
 ****
 1  2  3  4  5  16  17  18  19  20  21  22  23  24  25 0
 3-21G
 ****
 27  28  30  31  32  35  37  42  43  44  45  46  47 0
 3-21G
 ****
 48  49 0
 3-21G
 ****


