%nproc=1
%NoSave
%Mem=1900MB
#P OB98/GEN NMR

erre ene a

0 1
  C      278.324      99.890    -250.214
  O      278.275      99.133    -249.019
  H      278.337     100.956    -249.948
  H      277.444      99.698    -250.835
  H      279.234      99.660    -250.772
  P      277.988      97.557    -249.135
  C      280.415      97.180    -248.321
  O      279.431      96.870    -249.312
  C      280.862      95.926    -247.574
  O      281.471      94.991    -248.494
  C      281.916      96.186    -246.512
  O      281.443      96.903    -245.392
  C      282.532      94.808    -246.316
  O      281.833      93.999    -245.385
  C      282.403      94.195    -247.736
  N      283.697      94.091    -248.406
  C      284.571      93.138    -247.895
  O      284.308      92.431    -246.920
  N      285.791      93.044    -248.510
  C      286.224      93.839    -249.537
  O      287.349      93.737    -250.018
  C      285.262      94.846    -250.021
  C      284.063      94.927    -249.437
  O      276.996      97.154    -250.188
  O      277.561      97.135    -247.655
  H      281.687      94.541    -244.580
  H      277.109      96.257    -247.653
  H      286.428      92.356    -248.159
  H      285.584      95.497    -250.833
  H      283.341      95.665    -249.784
  H      281.972      93.187    -247.681
  H      283.566      94.874    -245.968
  H      282.700      96.808    -246.963
  H      279.970      95.448    -247.145
  H      279.953      97.883    -247.611
  H      281.270      97.677    -248.798
  P      282.321      97.983    -244.600
  C      281.337     100.166    -245.587
  O      282.444      99.294    -245.521
  O      283.536      97.473    -243.894
  O      281.278      98.466    -243.468
  H      281.785      98.670    -242.660
  H      281.567     100.987    -246.234
  H      281.115     100.535    -244.608
  H      280.489      99.637    -245.969

 6  7  8  9  10  11  12  13  14  15  16  26  31  32  33  34  35 0
 6-311+G(2d,p)
 ****
 36  37 0
 6-311+G(2d,p)
 ****
 1  2  3  4  5  17  18  19  20  21  22  23  24  25 0
 3-21G
 ****
 27  28  29  30  38  39  40  41  42  43  44  45 0
 3-21G
 ****


