%nproc=1
%NoSave
%Mem=1900MB
#P OB98/GEN NMR

erre ene a

0 1
  C      534.790    -957.379    1012.375
  O      533.965    -957.015    1011.292
  P      532.406    -956.704    1011.612
  C      530.725    -954.886    1010.732
  O      532.064    -955.331    1010.853
  C      530.619    -953.828    1009.610
  O      531.516    -952.732    1009.905
  C      531.025    -954.337    1008.239
  O      530.019    -955.119    1007.636
  C      531.315    -953.003    1007.526
  O      530.084    -952.396    1007.091
  C      531.969    -952.167    1008.644
  N      533.417    -952.110    1008.581
  C      533.988    -950.854    1008.409
  O      533.296    -949.831    1008.315
  N      535.362    -950.812    1008.333
  C      536.201    -951.884    1008.335
  O      537.412    -951.780    1008.228
  C      535.533    -953.193    1008.487
  C      534.203    -953.246    1008.593
  O      532.501    -956.299    1013.149
  O      531.506    -957.862    1011.313
  H      533.380    -955.925    1013.387
  H      529.617    -953.083    1006.595
  H      535.782    -949.893    1008.215
  H      536.188    -954.076    1008.493
  H      533.717    -954.207    1008.717
  H      531.578    -951.149    1008.618
  H      531.962    -953.129    1006.646
  H      531.967    -954.908    1008.294
  H      529.604    -953.444    1009.597
  H      530.392    -954.443    1011.673
  H      530.076    -955.746    1010.501
  P      530.462    -956.069    1006.406
  C      529.431    -958.197    1005.311
  O      529.438    -957.287    1006.409
  O      531.817    -956.688    1006.990
  O      530.613    -955.329    1005.119
  H      531.758    -956.954    1007.928
  H      528.963    -959.128    1005.636
  H      530.457    -958.411    1004.967
  H      528.855    -957.782    1004.487
  H      535.785    -957.554    1012.022
  H      534.410    -958.271    1012.829
  H      534.801    -956.589    1013.096

 3  4  5  6  7  8  9  10  11  12  13  24  28  29  30  31  32 0
 6-311+G(2d,p)
 ****
 33  34 0
 6-311+G(2d,p)
 ****
 1  2  14  15  16  17  18  19  20  21  22  23  25  26  27 0
 3-21G
 ****
 35  36  37  38  39  40  41  42  43  44  45 0
 3-21G
 ****


