%nproc=1
%NoSave
%Mem=1900MB
#P OB98/GEN NMR

erre ene a

0 1
  C        6.704    -220.685    -133.701
  O        5.851    -220.508    -134.835
  P        5.060    -221.814    -135.334
  C        3.228    -220.451    -136.558
  O        4.256    -221.423    -136.669
  C        3.768    -219.034    -136.784
  O        4.517    -218.954    -138.033
  C        2.678    -217.959    -136.849
  O        3.227    -216.769    -136.267
  C        2.505    -217.744    -138.341
  O        1.863    -216.505    -138.624
  C        3.962    -217.855    -138.790
  N        3.598    -215.705    -143.343
  C        3.265    -215.209    -142.098
  N        2.817    -213.937    -142.052
  N        3.367    -215.903    -140.993
  C        3.867    -217.148    -141.187
  C        4.246    -217.745    -142.366
  C        4.099    -216.978    -143.585
  O        4.382    -217.366    -144.712
  N        4.737    -219.012    -142.154
  C        4.584    -219.194    -140.852
  N        4.115    -218.078    -140.215
  O        3.913    -221.987    -134.230
  O        5.919    -223.032    -135.440
  H        2.448    -215.788    -138.297
  H        4.164    -222.679    -133.591
  H        3.484    -215.133    -144.164
  H        4.822    -220.101    -140.321
  H        4.537    -216.950    -138.557
  H        1.901    -218.552    -138.772
  H        2.761    -213.333    -142.857
  H        1.744    -218.230    -136.348
  H        2.605    -213.537    -141.146
  H        4.467    -218.802    -135.970
  H        2.770    -220.502    -135.566
  H        2.432    -220.688    -137.272
  P        2.652    -216.293    -134.851
  C        4.747    -215.372    -133.645
  O        3.558    -215.074    -134.349
  O        3.064    -217.494    -133.870
  O        1.175    -216.066    -134.823
  H        2.345    -217.656    -133.233
  H        5.452    -214.550    -133.783
  H        5.210    -216.297    -133.999
  H        4.522    -215.469    -132.578
  H        7.175    -219.755    -133.461
  H        7.452    -221.416    -133.928
  H        6.123    -221.017    -132.866

 3  4  5  6  7  8  9  10  11  12  23  26  30  31 0
 6-311+G(2d,p)
 ****
 33  35  36  37  38 0
 6-311+G(2d,p)
 ****
 1  2  13  14  15  16  17  18  19  20  21  22  24  25 0
 3-21G
 ****
 27  28  29  32  34  39  40  41  42  43  44  45  46  47  48  49 0
 3-21G
 ****


