%nproc=1
%NoSave
%Mem=1900MB
#P OB98/GEN NMR

erre ene a

0 1
  C      166.723     284.054     -45.669
  O      167.853     284.894     -45.752
  H      166.583     283.560     -46.633
  H      165.837     284.653     -45.448
  H      166.850     283.289     -44.898
  P      168.555     285.377     -44.400
  C      167.968     287.014     -42.493
  O      167.764     286.664     -43.856
  C      168.178     288.518     -42.321
  O      166.954     289.219     -42.632
  C      168.552     288.900     -40.887
  O      169.938     288.835     -40.602
  C      168.038     290.334     -40.798
  O      169.035     291.273     -41.238
  C      166.838     290.342     -41.747
  N      162.898     292.954     -39.800
  C      164.102     293.434     -40.284
  N      164.283     294.768     -40.199
  N      165.033     292.664     -40.782
  C      164.748     291.346     -40.706
  C      163.599     290.752     -40.231
  C      162.542     291.614     -39.749
  O      161.453     291.241     -39.327
  N      163.684     289.381     -40.275
  C      164.913     289.150     -40.693
  N      165.567     290.308     -41.043
  O      169.939     286.013     -44.905
  O      168.807     284.304     -43.385
  H      169.510     290.876     -41.993
  H      170.625     285.886     -44.225
  H      162.208     293.596     -39.455
  H      165.359     288.169     -40.806
  H      166.829     291.242     -42.374
  H      167.794     290.598     -39.765
  H      163.638     295.395     -39.749
  H      167.992     288.293     -40.167
  H      165.222     295.138     -40.367
  H      168.936     288.862     -43.036
  H      168.855     286.472     -42.162
  H      167.128     286.672     -41.883
  P      170.460     288.475     -39.134
  C      170.028     289.412     -36.722
  O      169.905     289.569     -38.118
  O      172.023     288.805     -39.217
  O      170.207     287.071     -38.690
  H      172.539     287.991     -39.365
  H      169.592     290.255     -36.228
  H      171.063     289.342     -36.461
  H      169.522     288.520     -36.417

 6  7  8  9  10  11  12  13  14  15  26  29  33  34 0
 6-311+G(2d,p)
 ****
 36  38  39  40  41 0
 6-311+G(2d,p)
 ****
 1  2  3  4  5  16  17  18  19  20  21  22  23  24  25 0
 3-21G
 ****
 27  28  30  31  32  35  37  42  43  44  45  46  47 0
 3-21G
 ****
 48  49 0
 3-21G
 ****


