%nproc=1
%NoSave
%Mem=1900MB
#P OB98/GEN NMR

erre ene a

0 1
  C      735.959     301.174     345.313
  O      734.840     300.959     346.141
  H      735.922     302.192     344.912
  H      735.955     300.470     344.475
  H      736.892     301.067     345.885
  P      734.748     299.605     346.987
  C      735.051     297.150     346.236
  O      734.472     298.414     345.935
  C      735.050     296.278     344.984
  O      735.648     296.989     343.870
  C      735.854     294.981     345.134
  O      735.165     294.025     345.914
  C      736.062     294.606     343.674
  O      734.911     293.934     343.155
  C      736.228     295.987     342.996
  N      737.644     296.283     342.724
  C      738.171     295.737     341.565
  O      737.521     295.035     340.793
  N      739.496     295.962     341.351
  C      740.362     296.552     342.234
  O      741.582     296.522     342.111
  C      739.740     297.175     343.405
  C      738.427     297.020     343.608
  O      733.834     299.635     348.167
  O      736.263     299.339     347.432
  H      736.378     299.604     348.368
  H      734.966     293.010     343.482
  H      739.908     295.524     340.528
  H      740.371     297.732     344.101
  H      737.946     297.439     344.485
  H      735.673     296.031     342.056
  H      736.931     293.948     343.551
  H      736.829     295.215     345.579
  H      734.005     296.049     344.718
  H      734.460     296.672     347.024
  H      736.072     297.307     346.596
  P      735.964     292.779     346.540
  C      737.051     290.638     345.623
  O      736.047     291.629     345.419
  O      735.474     292.310     347.868
  O      737.468     293.290     346.642
  H      737.813     293.100     347.553
  H      737.018     289.927     344.824
  H      736.875     290.138     346.553
  H      738.014     291.105     345.645

 6  7  8  9  10  11  12  13  14  15  16  27  31  32  33  34  35 0
 6-311+G(2d,p)
 ****
 36  37 0
 6-311+G(2d,p)
 ****
 1  2  3  4  5  17  18  19  20  21  22  23  24  25 0
 3-21G
 ****
 26  28  29  30  38  39  40  41  42  43  44  45 0
 3-21G
 ****


