%nproc=1
%NoSave
%Mem=1900MB
#P OB98/GEN NMR

erre ene a

0 1
  C       -2.551      58.303     228.647
  O       -3.191      59.518     228.315
  H       -2.137      58.391     229.655
  H       -1.733      58.099     227.952
  H       -3.266      57.476     228.636
  P       -3.883      59.650     226.874
  C       -2.307      61.662     226.445
  O       -2.784      60.411     225.978
  C       -1.145      62.142     225.582
  O       -0.032      61.224     225.644
  C       -1.457      62.261     224.094
  O       -2.274      63.375     223.768
  C       -0.051      62.394     223.542
  O        0.445      63.722     223.790
  C        0.702      61.345     224.392
  N        0.800      60.045     223.729
  C        2.044      59.406     223.783
  O        2.996      59.933     224.359
  N        2.194      58.192     223.156
  C        1.196      57.673     222.507
  N        1.402      56.474     221.896
  C       -0.125      58.324     222.405
  C       -0.253      59.490     223.033
  O       -5.252      60.250     226.857
  O       -3.827      58.171     226.264
  H        1.417      63.662     223.815
  H       -4.253      58.195     225.374
  H       -0.915      57.864     221.828
  H       -1.193      60.030     222.998
  H        1.712      61.693     224.641
  H        0.007      62.224     222.463
  H       -1.897      61.332     223.712
  H       -0.797      63.097     225.999
  H        2.319      56.054     221.982
  H       -1.998      61.542     227.489
  H        0.707      56.036     221.306
  H       -3.105      62.410     226.396
  P       -2.963      63.370     222.316
  C       -1.638      65.479     221.529
  O       -1.940      64.108     221.331
  O       -4.165      64.411     222.484
  O       -3.426      62.030     221.835
  H       -5.006      63.945     222.648
  H       -0.942      65.802     220.783
  H       -1.208      65.613     222.500
  H       -2.536      66.056     221.453

 6  7  8  9  10  11  12  13  14  15  16  26  30  31  32  33  35 0
 6-311+G(2d,p)
 ****
 37  38 0
 6-311+G(2d,p)
 ****
 1  2  3  4  5  17  18  19  20  21  22  23  24  25 0
 3-21G
 ****
 27  28  29  34  36  39  40  41  42  43  44  45  46 0
 3-21G
 ****


