%nproc=1
%NoSave
%Mem=1900MB
#P OB98/GEN NMR

erre ene a

0 1
  C      -18.771     -19.158      -5.050
  O      -17.841     -19.489      -4.036
  P      -17.793     -18.556      -2.734
  C      -17.512     -15.988      -2.379
  O      -17.252     -17.121      -3.197
  C      -16.294     -15.062      -2.381
  O      -15.140     -15.747      -1.848
  C      -15.887     -14.593      -3.771
  O      -16.720     -13.542      -4.228
  C      -14.443     -14.168      -3.541
  O      -14.377     -12.835      -3.011
  C      -13.972     -15.196      -2.493
  N      -13.128     -16.238      -3.068
  C      -11.796     -15.895      -3.279
  O      -11.344     -14.778      -3.022
  N      -11.008     -16.866      -3.832
  C      -11.423     -18.100      -4.239
  O      -10.679     -18.909      -4.780
  C      -12.848     -18.397      -4.019
  C      -13.623     -17.466      -3.459
  O      -16.586     -19.159      -1.874
  O      -19.064     -18.514      -1.954
  H      -15.107     -12.756      -2.366
  H      -16.791     -19.090      -0.922
  H      -10.035     -16.647      -3.968
  H      -13.212     -19.367      -4.330
  H      -14.678     -17.660      -3.302
  H      -13.402     -14.693      -1.701
  H      -13.859     -14.174      -4.466
  H      -15.904     -15.438      -4.470
  H      -16.511     -14.203      -1.733
  H      -17.723     -16.319      -1.359
  H      -18.393     -15.465      -2.762
  P      -16.910     -13.404      -5.817
  C      -15.180     -13.474      -7.773
  O      -15.427     -13.250      -6.402
  O      -17.553     -11.941      -5.914
  O      -17.745     -14.493      -6.401
  H      -17.225     -11.349      -5.216
  H      -16.017     -13.137      -8.391
  H      -15.010     -14.540      -7.941
  H      -14.283     -12.922      -8.063
  H      -18.691     -19.862      -5.851
  H      -18.563     -18.175      -5.417
  H      -19.762     -19.187      -4.648

 3  4  5  6  7  8  9  10  11  12  13  23  28  29  30  31  32 0
 6-311+G(2d,p)
 ****
 33  34 0
 6-311+G(2d,p)
 ****
 1  2  14  15  16  17  18  19  20  21  22  24  25  26 0
 3-21G
 ****
 27  35  36  37  38  39  40  41  42  43  44  45 0
 3-21G
 ****


