%nproc=1
%NoSave
%Mem=1900MB
#P OB98/GEN NMR

erre ene a

0 1
  C       97.346    -241.952    -141.072
  O       98.072    -242.418    -142.198
  P       98.306    -241.397    -143.415
  C       97.126    -241.110    -145.721
  O       97.016    -241.508    -144.364
  C       96.295    -242.032    -146.618
  O       96.828    -243.378    -146.521
  C       94.807    -242.107    -146.257
  O       94.089    -242.311    -147.480
  C       94.725    -243.359    -145.405
  O       93.409    -243.902    -145.349
  C       95.750    -244.243    -146.101
  N       95.899    -249.214    -145.174
  C       95.177    -248.512    -146.122
  N       94.437    -249.248    -146.979
  N       95.180    -247.206    -146.221
  C       95.980    -246.607    -145.307
  C       96.711    -247.190    -144.297
  C       96.726    -248.633    -144.222
  O       97.418    -249.299    -143.455
  N       97.324    -246.249    -143.514
  C       97.028    -245.104    -144.096
  N       96.256    -245.275    -145.215
  O       99.459    -242.110    -144.261
  O       98.660    -239.996    -143.028
  H       93.107    -244.051    -146.267
  H      100.341    -241.778    -144.003
  H       95.869    -250.219    -145.159
  H       97.350    -244.131    -143.764
  H       95.344    -244.740    -146.992
  H       95.035    -243.128    -144.379
  H       94.410    -250.257    -146.980
  H       94.434    -241.216    -145.741
  H       93.925    -248.759    -147.705
  H       96.419    -241.705    -147.656
  H       98.176    -241.182    -146.027
  H       96.806    -240.070    -145.826
  P       92.506    -242.063    -147.471
  C       90.470    -243.453    -146.680
  O       91.846    -243.171    -146.524
  O       92.066    -242.528    -148.943
  O       92.095    -240.649    -147.218
  H       91.305    -241.995    -149.242
  H       90.269    -244.451    -146.284
  H       90.166    -243.423    -147.729
  H       89.883    -242.725    -146.112
  H       97.270    -242.736    -140.347
  H       96.365    -241.653    -141.379
  H       97.855    -241.115    -140.641

 3  4  5  6  7  8  9  10  11  12  23  26  30  31 0
 6-311+G(2d,p)
 ****
 33  35  36  37  38 0
 6-311+G(2d,p)
 ****
 1  2  13  14  15  16  17  18  19  20  21  22  24  25 0
 3-21G
 ****
 27  28  29  32  34  39  40  41  42  43  44  45  46  47  48  49 0
 3-21G
 ****


