%nproc=1
%NoSave
%Mem=1900MB
#P OB98/GEN NMR

erre ene a

0 1
  C      -91.089    -272.145     265.402
  O      -90.604    -271.978     266.735
  P      -89.358    -272.879     267.186
  C      -90.718    -275.039     267.719
  O      -89.720    -274.417     266.914
  C      -91.048    -276.431     267.172
  O      -89.854    -277.115     266.745
  C      -91.686    -277.344     268.207
  O      -93.056    -277.027     268.374
  C      -91.442    -278.724     267.604
  O      -92.518    -279.125     266.738
  C      -90.134    -278.529     266.798
  N      -89.014    -279.268     267.351
  C      -89.160    -280.663     267.380
  O      -90.194    -281.186     266.974
  N      -88.136    -281.414     267.891
  C      -87.075    -280.829     268.361
  N      -86.093    -281.627     268.860
  C      -86.897    -279.362     268.374
  C      -87.897    -278.649     267.862
  O      -89.385    -272.773     268.784
  O      -88.046    -272.433     266.620
  H      -92.371    -280.077     266.563
  H      -88.474    -272.812     269.142
  H      -85.998    -278.920     268.782
  H      -87.855    -277.564     267.831
  H      -90.279    -278.854     265.755
  H      -91.358    -279.491     268.380
  H      -91.153    -277.259     269.162
  H      -91.714    -276.319     266.308
  H      -86.249    -282.629     268.835
  H      -91.623    -274.424     267.732
  H      -85.228    -281.279     269.257
  H      -90.358    -275.095     268.754
  P      -93.482    -276.228     269.691
  C      -93.923    -278.320     271.112
  O      -93.089    -277.191     270.911
  O      -95.078    -276.356     269.663
  O      -93.036    -274.808     269.801
  H      -95.469    -275.817     270.379
  H      -93.436    -278.993     271.822
  H      -94.075    -278.857     270.167
  H      -94.887    -278.006     271.519
  H      -91.916    -271.486     265.238
  H      -91.406    -273.157     265.262
  H      -90.308    -271.917     264.707

 3  4  5  6  7  8  9  10  11  12  13  21  23  27  28  29  30  32 0
 6-311+G(2d,p)
 ****
 34  35 0
 6-311+G(2d,p)
 ****
 1  2  14  15  16  17  18  19  20  22  24  25  26 0
 3-21G
 ****
 31  33  36  37  38  39  40  41  42  43  44  45  46 0
 3-21G
 ****


