%nproc=1
%NoSave
%Mem=1900MB
#P OB98/GEN NMR

erre ene a

0 1
  C      361.948    -559.154     -47.044
  O      361.556    -559.841     -45.872
  H      361.304    -558.286     -47.210
  H      362.980    -558.811     -46.919
  H      361.901    -559.829     -47.905
  P      360.032    -560.332     -45.810
  C      357.958    -558.825     -46.217
  O      359.146    -559.035     -45.468
  C      357.608    -557.345     -46.240
  O      358.731    -556.572     -46.714
  C      356.452    -556.979     -47.165
  O      355.188    -557.273     -46.574
  C      356.662    -555.479     -47.305
  O      356.131    -554.801     -46.149
  C      358.197    -555.364     -47.319
  N      358.800    -552.222     -51.339
  C      358.177    -552.055     -50.144
  N      358.045    -552.938     -49.130
  C      358.659    -554.092     -49.426
  C      359.336    -554.407     -50.591
  C      359.392    -553.415     -51.583
  N      360.019    -553.595     -52.798
  N      359.853    -555.683     -50.526
  C      359.496    -556.134     -49.339
  N      358.766    -555.212     -48.642
  O      359.966    -561.190     -44.459
  O      359.569    -561.130     -46.986
  H      355.154    -554.843     -46.226
  H      359.357    -561.940     -44.589
  H      357.719    -551.082     -49.992
  H      359.742    -557.116     -48.949
  H      358.541    -554.521     -46.698
  H      356.177    -555.054     -48.182
  H      356.557    -557.452     -48.148
  H      357.393    -557.028     -45.208
  H      357.137    -559.383     -45.757
  H      360.196    -552.796     -53.375
  H      360.468    -554.493     -52.968
  H      358.115    -559.198     -47.237
  P      353.883    -557.093     -47.501
  C      352.944    -555.151     -48.941
  O      353.877    -555.550     -47.946
  O      352.683    -557.179     -46.450
  O      353.738    -558.096     -48.595
  H      351.868    -557.475     -46.895
  H      353.055    -554.104     -49.134
  H      351.950    -555.347     -48.597
  H      353.125    -555.701     -49.841

 6  7  8  9  10  11  12  13  14  15  25  28  32  33  34  35 0
 6-311+G(2d,p)
 ****
 36  39  40 0
 6-311+G(2d,p)
 ****
 1  2  3  4  5  16  17  18  19  20  21  22  23  24 0
 3-21G
 ****
 26  27  29  30  31  37  38  41  42  43  44  45  46  47  48 0
 3-21G
 ****


