%nproc=1
%NoSave
%Mem=1900MB
#P OB98/GEN NMR

erre ene a

0 1
  C      712.218     387.289       5.137
  O      711.043     388.104       5.065
  P      711.192     389.686       4.915
  C      710.363     389.816       2.473
  O      711.432     390.063       3.379
  C      710.819     390.088       1.032
  O      711.993     389.308       0.696
  C      709.773     389.692      -0.004
  O      708.609     390.478      -0.059
  C      710.603     389.596      -1.275
  O      710.803     390.873      -1.880
  C      711.950     389.041      -0.730
  N      712.132     387.616      -1.006
  C      712.466     387.283      -2.313
  O      712.554     388.119      -3.222
  N      712.638     385.953      -2.564
  C      712.493     384.939      -1.674
  O      712.646     383.758      -1.947
  C      712.121     385.356      -0.299
  C      711.961     386.653      -0.034
  O      712.115     390.343       5.889
  O      709.680     390.208       5.159
  H      711.363     391.401      -1.285
  H      709.726     391.012       5.708
  H      712.887     385.696      -3.517
  H      711.993     384.574       0.448
  H      711.690     386.974       0.964
  H      712.798     389.586      -1.167
  H      710.122     388.957      -2.017
  H      709.441     388.674       0.235
  H      711.095     391.138       0.954
  H      709.514     390.443       2.729
  H      710.027     388.776       2.597
  P      707.226     390.060       0.661
  C      707.448     391.803       2.572
  O      707.350     390.443       2.213
  O      706.661     388.725       0.327
  O      706.229     391.198       0.115
  H      705.346     390.814       0.035
  H      707.527     391.876       3.663
  H      706.562     392.351       2.252
  H      708.338     392.251       2.120
  H      711.934     386.262       5.235
  H      712.803     387.580       5.985
  H      712.795     387.416       4.245

 3  4  5  6  7  8  9  10  11  12  13  23  28  29  30  31  32 0
 6-311+G(2d,p)
 ****
 33  34 0
 6-311+G(2d,p)
 ****
 1  2  14  15  16  17  18  19  20  21  22  24  25  26  27 0
 3-21G
 ****
 35  36  37  38  39  40  41  42  43  44  45 0
 3-21G
 ****


