%nproc=1
%NoSave
%Mem=1900MB
#P OB98/GEN NMR

erre ene a

0 1
  C      -81.097     -51.917    -159.967
  O      -80.160     -50.901    -159.616
  P      -79.583     -50.665    -158.147
  C      -80.624     -50.403    -155.755
  O      -80.817     -50.412    -157.162
  C      -81.630     -49.506    -155.012
  O      -81.433     -48.125    -155.411
  C      -83.063     -49.870    -155.403
  O      -83.724     -50.944    -154.762
  C      -83.824     -48.553    -155.349
  O      -84.470     -48.344    -154.092
  C      -82.727     -47.505    -155.565
  N      -85.256     -44.212    -158.553
  C      -85.567     -44.653    -157.283
  N      -86.724     -44.201    -156.754
  N      -84.820     -45.477    -156.599
  C      -83.737     -45.920    -157.278
  C      -83.334     -45.573    -158.547
  C      -84.139     -44.612    -159.274
  O      -83.901     -44.179    -160.398
  N      -82.195     -46.242    -158.914
  C      -81.924     -47.011    -157.881
  N      -82.828     -46.846    -156.857
  O      -78.435     -49.719    -158.050
  O      -79.048     -52.127    -157.720
  H      -83.792     -48.073    -153.448
  H      -78.273     -51.981    -157.141
  H      -85.855     -43.557    -159.025
  H      -81.086     -47.696    -157.818
  H      -82.783     -46.713    -154.809
  H      -84.612     -48.531    -156.111
  H      -87.399     -43.662    -157.272
  H      -83.042     -50.151    -156.464
  H      -87.063     -44.687    -155.920
  H      -81.455     -49.535    -153.935
  H      -79.601     -50.058    -155.578
  H      -80.679     -51.420    -155.364
  P      -84.456     -52.172    -155.482
  C      -86.725     -52.651    -156.571
  O      -85.901     -51.676    -155.956
  O      -84.806     -53.172    -154.282
  O      -83.648     -52.862    -156.532
  H      -85.017     -54.058    -154.629
  H      -87.527     -52.146    -157.116
  H      -87.167     -53.294    -155.805
  H      -86.149     -53.262    -157.272
  H      -81.316     -51.855    -161.013
  H      -81.998     -51.781    -159.405
  H      -80.681     -52.878    -159.746

 3  4  5  6  7  8  9  10  11  12  23  26  30  31 0
 6-311+G(2d,p)
 ****
 33  35  36  37  38 0
 6-311+G(2d,p)
 ****
 1  2  13  14  15  16  17  18  19  20  21  22  24  25 0
 3-21G
 ****
 27  28  29  32  34  39  40  41  42  43  44  45  46  47  48  49 0
 3-21G
 ****


