%nproc=1
%NoSave
%Mem=1900MB
#P OB98/GEN NMR

erre ene a

0 1
  C       51.747     296.055      -5.190
  O       50.366     296.352      -5.254
  H       51.890     295.193      -4.533
  H       52.297     296.906      -4.778
  H       52.128     295.811      -6.185
  P       49.956     297.635      -6.127
  C       49.955     298.193      -8.659
  O       50.404     297.316      -7.636
  C       50.775     297.994      -9.931
  O       52.069     298.622      -9.807
  C       51.028     296.535     -10.295
  O       49.926     295.991     -11.003
  C       52.277     296.657     -11.155
  O       51.943     297.069     -12.498
  C       53.061     297.759     -10.428
  N       57.886     296.556      -9.553
  C       57.260     296.935     -10.724
  N       58.026     296.975     -11.838
  N       55.992     297.238     -10.805
  C       55.335     297.100      -9.629
  C       55.841     296.729      -8.404
  C       57.258     296.450      -8.319
  O       57.886     296.189      -7.297
  N       54.860     296.723      -7.444
  C       53.762     297.055      -8.095
  N       53.997     297.288      -9.425
  O       51.004     298.754      -5.662
  O       48.553     298.107      -5.954
  H       51.437     296.359     -12.931
  H       50.548     299.616      -5.628
  H       58.871     296.364      -9.545
  H       52.779     297.148      -7.649
  H       53.636     298.378     -11.125
  H       52.797     295.702     -11.247
  H       58.906     296.485     -11.897
  H       51.258     295.941      -9.403
  H       57.550     297.181     -12.705
  H       50.248     298.508     -10.746
  H       50.065     299.225      -8.313
  H       48.899     297.995      -8.866
  P       49.732     294.401     -10.994
  C       49.645     292.544      -9.181
  O       50.016     293.878      -9.503
  O       50.999     293.883     -11.823
  O       48.460     293.926     -11.609
  H       50.719     293.599     -12.713
  H       49.894     292.341      -8.160
  H       50.170     291.864      -9.819
  H       48.591     292.423      -9.322

 6  7  8  9  10  11  12  13  14  15  26  29  33  34 0
 6-311+G(2d,p)
 ****
 36  38  39  40  41 0
 6-311+G(2d,p)
 ****
 1  2  3  4  5  16  17  18  19  20  21  22  23  24  25 0
 3-21G
 ****
 27  28  30  31  32  35  37  42  43  44  45  46  47 0
 3-21G
 ****
 48  49 0
 3-21G
 ****


