%nproc=1
%NoSave
%Mem=1900MB
#P OB98/GEN NMR

erre ene a

0 1
  C     -769.511    1008.865     336.807
  O     -770.853    1008.453     337.021
  P     -771.696    1009.107     338.239
  C     -773.555    1010.099     336.685
  O     -773.220    1009.257     337.790
  C     -774.655    1009.467     335.826
  O     -774.136    1008.365     335.066
  C     -775.816    1008.876     336.636
  O     -776.693    1009.909     337.108
  C     -776.463    1007.972     335.602
  O     -777.342    1008.691     334.731
  C     -775.229    1007.442     334.820
  N     -774.875    1006.065     335.206
  C     -775.827    1005.112     334.957
  O     -776.959    1005.363     334.529
  N     -775.496    1003.813     335.274
  C     -774.301    1003.436     335.872
  O     -774.050    1002.255     336.158
  C     -773.353    1004.506     336.170
  C     -773.683    1005.767     335.845
  O     -771.198    1010.626     338.208
  O     -771.479    1008.493     339.574
  H     -777.965    1009.186     335.278
  H     -771.257    1011.010     339.097
  H     -776.164    1003.096     335.099
  H     -772.419    1004.250     336.664
  H     -773.001    1006.583     336.044
  H     -775.415    1007.481     333.742
  H     -777.060    1007.151     336.085
  H     -775.434    1008.282     337.458
  H     -775.023    1010.232     335.119
  H     -772.668    1010.261     336.063
  H     -773.880    1011.086     337.086
  P     -776.918    1009.974     338.695
  C     -776.033    1012.436     338.812
  O     -777.087    1011.544     339.039
  O     -775.432    1009.611     339.232
  O     -777.993    1009.064     339.183
  H     -774.766    1009.932     338.635
  H     -775.438    1012.157     337.935
  H     -775.402    1012.488     339.693
  H     -776.453    1013.434     338.619
  H     -769.105    1008.338     335.969
  H     -768.929    1008.651     337.679
  H     -769.488    1009.917     336.612

 3  4  5  6  7  8  9  10  11  12  13  23  28  29  30  31  32 0
 6-311+G(2d,p)
 ****
 33  34 0
 6-311+G(2d,p)
 ****
 1  2  14  15  16  17  18  19  20  21  22  24  25  26 0
 3-21G
 ****
 27  35  36  37  38  39  40  41  42  43  44  45 0
 3-21G
 ****


