%nproc=1
%NoSave
%Mem=1900MB
#P OB98/GEN NMR

erre ene a

0 1
  C      382.207     355.494      38.180
  O      382.349     354.556      37.116
  P      383.378     353.347      37.332
  C      381.628     351.473      37.736
  O      382.633     352.307      38.302
  C      382.138     350.042      37.590
  O      382.279     349.430      38.892
  C      381.232     349.120      36.792
  O      381.404     349.264      35.395
  C      381.725     347.755      37.254
  O      382.936     347.418      36.542
  C      382.028     348.005      38.735
  N      379.268     344.048      40.434
  C      380.237     344.132      39.503
  N      380.910     345.229      39.097
  C      380.477     346.325      39.734
  C      379.457     346.397      40.685
  C      378.843     345.188      41.041
  N      377.876     345.104      42.016
  N      379.292     347.698      41.105
  C      380.184     348.394      40.443
  N      380.930     347.610      39.604
  O      384.504     353.989      38.279
  O      383.953     352.777      36.076
  H      382.690     347.270      35.624
  H      385.338     353.496      38.180
  H      380.514     343.192      39.028
  H      380.335     349.466      40.536
  H      382.922     347.483      39.075
  H      381.010     346.956      37.050
  H      380.175     349.243      37.091
  H      383.136     350.084      37.136
  H      381.353     351.856      36.751
  H      377.610     344.179      42.344
  H      377.711     345.915      42.600
  H      380.742     351.495      38.374
  P      380.062     349.403      34.501
  C      380.897     351.686      33.590
  O      379.885     350.976      34.265
  O      378.909     349.033      35.540
  O      380.052     348.543      33.289
  H      378.123     348.695      35.063
  H      380.490     352.649      33.245
  H      381.265     351.138      32.729
  H      381.727     351.893      34.271
  H      381.494     356.242      37.903
  H      383.152     355.957      38.376
  H      381.869     354.987      39.060

 3  4  5  6  7  8  9  10  11  12  22  25  29  30  31  32 0
 6-311+G(2d,p)
 ****
 33  36  37 0
 6-311+G(2d,p)
 ****
 1  2  13  14  15  16  17  18  19  20  21  23  24  26 0
 3-21G
 ****
 27  28  34  35  38  39  40  41  42  43  44  45  46  47  48 0
 3-21G
 ****


