%nproc=1
%NoSave
%Mem=1900MB
#P OB98/GEN NMR

erre ene a

0 1
  C     -268.666     414.422    -410.554
  O     -269.740     414.253    -409.649
  H     -267.756     414.017    -410.102
  H     -268.508     415.487    -410.763
  H     -268.869     413.883    -411.483
  P     -271.169     414.821    -410.114
  C     -273.591     414.120    -409.525
  O     -272.223     413.735    -409.581
  C     -274.348     413.260    -408.514
  O     -274.344     411.882    -408.931
  C     -273.762     413.282    -407.105
  O     -274.221     414.420    -406.393
  C     -274.337     411.997    -406.534
  O     -275.694     412.225    -406.102
  C     -274.325     411.047    -407.745
  N     -272.824     406.148    -408.065
  C     -274.033     406.699    -407.825
  N     -274.348     408.008    -407.699
  C     -273.263     408.780    -407.857
  C     -271.965     408.354    -408.103
  C     -271.757     406.970    -408.214
  N     -270.520     406.408    -408.457
  N     -271.103     409.432    -408.204
  C     -271.884     410.488    -408.079
  N     -273.191     410.150    -407.828
  O     -271.278     415.196    -411.553
  O     -271.365     416.031    -409.081
  H     -275.649     412.799    -405.313
  H     -271.065     415.772    -408.192
  H     -274.856     405.998    -407.716
  H     -271.556     411.519    -408.179
  H     -275.228     410.416    -407.776
  H     -273.783     411.637    -405.663
  H     -272.668     413.212    -407.119
  H     -275.393     413.596    -408.504
  H     -274.053     414.021    -410.516
  H     -270.436     405.414    -408.329
  H     -269.718     407.015    -408.438
  H     -273.627     415.174    -409.232
  P     -273.379     415.027    -405.170
  C     -273.721     417.114    -403.703
  O     -273.950     416.515    -404.977
  O     -271.901     414.915    -405.319
  O     -273.937     414.258    -403.885
  H     -273.314     414.361    -403.139
  H     -274.142     418.097    -403.690
  H     -272.668     417.175    -403.521
  H     -274.181     416.519    -402.941

 6  7  8  9  10  11  12  13  14  15  25  28  32  33  34  35 0
 6-311+G(2d,p)
 ****
 36  39  40 0
 6-311+G(2d,p)
 ****
 1  2  3  4  5  16  17  18  19  20  21  22  23  24 0
 3-21G
 ****
 26  27  29  30  31  37  38  41  42  43  44  45  46  47 0
 3-21G
 ****
 48 0
 3-21G
 ****


