%nproc=1
%NoSave
%Mem=1900MB
#P OB98/GEN NMR

erre ene a

0 1
  C      -46.747    -804.750      39.476
  O      -46.909    -803.552      38.748
  H      -47.721    -805.149      39.771
  H      -46.246    -805.484      38.838
  H      -46.131    -804.575      40.364
  P      -47.621    -802.331      39.509
  C      -49.808    -802.130      40.897
  O      -49.076    -802.868      39.926
  C      -50.969    -802.976      41.413
  O      -50.470    -804.158      42.078
  C      -51.853    -802.271      42.432
  O      -52.803    -801.411      41.820
  C      -52.535    -803.463      43.082
  O      -53.574    -803.961      42.221
  C      -51.380    -804.477      43.162
  N      -49.860    -807.177      47.233
  C      -50.594    -807.517      46.155
  N      -50.962    -806.736      45.117
  C      -50.486    -805.487      45.267
  C      -49.732    -804.995      46.320
  C      -49.408    -805.910      47.338
  N      -48.673    -805.564      48.454
  N      -49.464    -803.651      46.146
  C      -50.019    -803.351      44.986
  N      -50.658    -804.423      44.424
  O      -47.942    -801.292      38.336
  O      -46.839    -801.713      40.618
  H      -53.909    -804.779      42.634
  H      -48.074    -800.398      38.706
  H      -50.936    -808.545      46.120
  H      -49.990    -802.375      44.517
  H      -51.718    -805.507      43.022
  H      -53.000    -803.223      44.037
  H      -51.259    -801.742      43.188
  H      -51.561    -803.309      40.548
  H      -50.200    -801.220      40.436
  H      -48.656    -806.234      49.206
  H      -48.461    -804.587      48.609
  H      -49.141    -801.859      41.720
  P      -53.758    -800.556      42.788
  C      -55.676    -801.250      44.402
  O      -54.941    -801.543      43.216
  O      -54.466    -799.536      41.783
  O      -53.054    -799.865      43.908
  H      -54.737    -798.718      42.256
  H      -56.427    -801.998      44.550
  H      -56.142    -800.291      44.305
  H      -55.011    -801.241      45.240

 6  7  8  9  10  11  12  13  14  15  25  28  32  33  34  35 0
 6-311+G(2d,p)
 ****
 36  39  40 0
 6-311+G(2d,p)
 ****
 1  2  3  4  5  16  17  18  19  20  21  22  23  24 0
 3-21G
 ****
 26  27  29  30  31  37  38  41  42  43  44  45  46  47 0
 3-21G
 ****
 48 0
 3-21G
 ****


