%nproc=1
%NoSave
%Mem=1900MB
#P OB98/GEN NMR

erre ene a

0 1
  C      308.563    -258.573     309.241
  O      308.635    -257.144     309.289
  P      309.770    -256.422     308.412
  C      308.553    -256.196     306.119
  O      309.564    -256.847     306.878
  C      309.174    -255.226     305.120
  O      309.911    -255.928     304.098
  C      308.146    -254.392     304.370
  O      307.666    -253.339     305.181
  C      308.940    -253.921     303.157
  O      309.608    -252.675     303.405
  C      309.966    -255.063     302.943
  N      309.737    -255.807     301.718
  C      309.884    -255.078     300.526
  O      310.162    -253.884     300.562
  N      309.680    -255.729     299.334
  C      309.331    -256.986     299.326
  N      309.143    -257.566     298.116
  C      309.150    -257.777     300.555
  C      309.363    -257.126     301.709
  O      311.101    -257.195     308.838
  O      309.879    -254.955     308.659
  H      309.971    -252.391     302.541
  H      311.863    -256.593     308.805
  H      308.851    -258.814     300.508
  H      309.251    -257.634     302.665
  H      310.984    -254.655     302.911
  H      308.290    -253.767     302.287
  H      307.314    -255.035     304.038
  H      309.865    -254.568     305.663
  H      309.279    -256.993     297.295
  H      307.863    -255.663     306.784
  H      308.865    -258.535     298.001
  H      307.957    -256.971     305.602
  P      306.093    -253.090     305.239
  C      305.817    -253.716     307.723
  O      305.557    -254.093     306.385
  O      305.586    -253.831     303.911
  O      305.616    -251.684     305.323
  H      304.631    -253.669     303.777
  H      305.229    -254.355     308.395
  H      305.512    -252.666     307.891
  H      306.878    -253.842     307.958
  H      307.766    -258.911     309.870
  H      309.488    -258.988     309.583
  H      308.381    -258.887     308.234

 3  4  5  6  7  8  9  10  11  12  13  21  23  27  28  29  30  32 0
 6-311+G(2d,p)
 ****
 34  35 0
 6-311+G(2d,p)
 ****
 1  2  14  15  16  17  18  19  20  22  24  25  26 0
 3-21G
 ****
 31  33  36  37  38  39  40  41  42  43  44  45  46 0
 3-21G
 ****


