%nproc=1
%NoSave
%Mem=1900MB
#P OB98/GEN NMR

erre ene a

0 1
  C       46.624      78.592     151.359
  O       47.225      79.611     152.130
  H       46.369      77.757     152.017
  H       47.318      78.237     150.594
  H       45.708      78.964     150.887
  P       47.731      80.914     151.342
  C       50.038      81.536     152.364
  O       48.632      81.752     152.374
  C       50.629      81.949     153.714
  O       50.406      83.359     153.935
  C       49.991      81.249     154.913
  O       50.478      79.933     155.082
  C       50.400      82.181     156.038
  O       51.722      81.886     156.513
  C       50.345      83.569     155.361
  N       49.162      84.333     155.755
  C       49.400      85.433     156.570
  O       50.524      85.764     156.951
  N       48.291      86.130     156.976
  C       46.997      85.812     156.678
  O       46.040      86.431     157.133
  C       46.809      84.641     155.802
  C       47.877      83.958     155.398
  O       46.402      81.791     151.199
  O       48.376      80.643     150.024
  H       46.049      81.716     150.292
  H       51.897      82.510     157.243
  H       48.445      86.924     157.575
  H       45.793      84.367     155.546
  H       47.770      83.083     154.765
  H       51.232      84.159     155.631
  H       49.732      82.091     156.898
  H       48.896      81.261     154.816
  H       51.710      81.763     153.693
  H       50.497      82.138     151.577
  H       50.237      80.478     152.165
  P       49.462      78.707     154.886
  C       50.055      77.982     157.345
  O       49.847      77.607     155.992
  O       49.997      78.080     153.514
  O       48.024      79.110     154.878
  H       50.964      78.128     153.419
  H       50.301      77.115     157.922
  H       49.163      78.427     157.733
  H       50.858      78.687     157.400

 6  7  8  9  10  11  12  13  14  15  16  27  31  32  33  34  35 0
 6-311+G(2d,p)
 ****
 36  37 0
 6-311+G(2d,p)
 ****
 1  2  3  4  5  17  18  19  20  21  22  23  24  25 0
 3-21G
 ****
 26  28  29  30  38  39  40  41  42  43  44  45 0
 3-21G
 ****


