%nproc=1
%NoSave
%Mem=1900MB
#P OB98/GEN NMR

erre ene a

0 1
  C       57.510     138.210    -109.203
  O       58.430     138.208    -110.274
  P       58.203     139.116    -111.578
  C       58.094     141.650    -111.994
  O       57.986     140.612    -111.033
  C       56.943     142.651    -111.865
  O       55.737     142.080    -112.445
  C       56.614     143.066    -110.424
  O       56.186     144.429    -110.485
  C       55.448     142.157    -110.082
  O       54.687     142.634    -108.980
  C       54.712     142.113    -111.428
  N       53.808     140.973    -111.519
  C       52.558     141.113    -110.912
  O       52.290     142.130    -110.267
  N       51.659     140.081    -110.998
  C       52.020     138.963    -111.553
  N       51.086     137.977    -111.614
  C       53.372     138.731    -112.094
  C       54.201     139.771    -112.060
  O       57.153     138.628    -112.515
  O       59.660     139.196    -112.237
  H       53.822     142.171    -108.979
  H       59.868     138.356    -112.716
  H       53.645     137.767    -112.497
  H       55.215     139.697    -112.433
  H       54.130     143.032    -111.580
  H       55.823     141.159    -109.823
  H       57.451     142.952    -109.733
  H       57.199     143.537    -112.458
  H       50.166     138.186    -111.245
  H       58.058     141.198    -112.988
  H       51.236     137.104    -112.098
  H       59.061     142.155    -111.891
  P       56.128     145.345    -109.172
  C       57.819     146.212    -107.457
  O       57.572     145.270    -108.486
  O       54.982     145.065    -108.255
  O       56.069     146.846    -109.737
  H       55.779     147.450    -109.023
  H       58.695     145.892    -106.886
  H       56.963     146.288    -106.780
  H       58.020     147.191    -107.898
  H       57.849     137.540    -108.441
  H       56.551     137.893    -109.556
  H       57.433     139.198    -108.801

 3  4  5  6  7  8  9  10  11  12  13  23  27  28  29  30  32 0
 6-311+G(2d,p)
 ****
 34  35 0
 6-311+G(2d,p)
 ****
 1  2  14  15  16  17  18  19  20  21  22  24  25  26 0
 3-21G
 ****
 31  33  36  37  38  39  40  41  42  43  44  45  46 0
 3-21G
 ****


