%nproc=1
%NoSave
%Mem=1900MB
#P OB98/GEN NMR

erre ene a

0 1
  C      -54.469       7.435     125.230
  O      -53.764       7.294     124.000
  P      -52.623       6.168     123.909
  C      -50.706       7.608     124.917
  O      -51.563       6.479     125.078
  C      -49.247       7.226     125.140
  O      -48.392       8.248     124.539
  C      -48.837       7.104     126.604
  O      -47.832       6.079     126.686
  C      -48.189       8.445     126.900
  O      -47.326       8.392     128.033
  C      -47.486       8.711     125.567
  N      -44.665      12.646     127.215
  C      -44.716      11.358     127.600
  N      -45.486      10.365     127.105
  C      -46.291      10.825     126.130
  C      -46.379      12.127     125.653
  C      -45.514      13.074     126.235
  N      -45.462      14.384     125.852
  N      -47.333      12.222     124.666
  C      -47.814      10.991     124.536
  N      -47.197      10.118     125.385
  O      -51.837       6.576     122.571
  O      -53.108       4.762     123.842
  H      -47.742       7.830     128.711
  H      -51.987       5.903     121.875
  H      -44.025      11.069     128.390
  H      -48.598      10.705     123.845
  H      -46.555       8.154     125.472
  H      -48.973       9.190     127.096
  H      -49.657       6.871     127.284
  H      -49.047       6.294     124.603
  H      -50.992       8.369     125.657
  H      -44.719      14.967     126.219
  H      -45.944      14.666     125.005
  H      -50.843       8.032     123.910
  P      -47.824       5.164     128.001
  C      -45.686       6.361     128.848
  O      -47.020       5.969     129.124
  O      -46.836       3.961     127.610
  O      -49.173       4.650     128.402
  H      -47.075       3.161     128.115
  H      -45.488       7.312     129.349
  H      -45.506       6.476     127.772
  H      -45.002       5.604     129.242
  H      -55.192       8.219     125.139
  H      -53.779       7.676     126.011
  H      -54.966       6.517     125.464

 3  4  5  6  7  8  9  10  11  12  22  25  29  30  31  32 0
 6-311+G(2d,p)
 ****
 33  36  37 0
 6-311+G(2d,p)
 ****
 1  2  13  14  15  16  17  18  19  20  21  23  24  26 0
 3-21G
 ****
 27  28  34  35  38  39  40  41  42  43  44  45  46  47  48 0
 3-21G
 ****


