%nproc=1
%NoSave
%Mem=1900MB
#P OB98/GEN NMR

erre ene a

0 1
  C      606.025    -487.075     -54.080
  O      606.776    -487.932     -53.230
  P      606.604    -487.739     -51.649
  C      606.727    -485.712     -50.037
  O      606.897    -486.185     -51.362
  C      606.739    -484.183     -50.008
  O      605.436    -483.690     -50.394
  C      607.010    -483.581     -48.628
  O      608.405    -483.561     -48.338
  C      606.463    -482.178     -48.832
  O      607.449    -481.355     -49.491
  C      605.245    -482.409     -49.745
  N      601.293    -479.632     -48.226
  C      602.407    -479.270     -48.954
  N      602.457    -477.976     -49.352
  N      603.380    -480.081     -49.254
  C      603.174    -481.342     -48.820
  C      602.108    -481.840     -48.084
  C      601.062    -480.906     -47.720
  O      600.080    -481.167     -47.011
  N      602.248    -483.180     -47.844
  C      603.368    -483.508     -48.464
  N      603.988    -482.422     -49.045
  O      607.894    -488.473     -51.053
  O      605.341    -488.286     -51.072
  H      607.672    -481.803     -50.340
  H      607.716    -488.764     -50.143
  H      600.563    -478.971     -48.021
  H      603.772    -484.525     -48.514
  H      605.207    -481.645     -50.534
  H      606.227    -481.677     -47.879
  H      601.685    -477.334     -49.264
  H      606.441    -484.097     -47.846
  H      603.252    -477.687     -49.924
  H      607.481    -483.833     -50.737
  H      607.553    -486.082     -49.409
  H      605.784    -486.104     -49.636
  P      608.789    -483.280     -46.806
  C      608.307    -481.300     -45.195
  O      608.381    -481.760     -46.530
  O      610.397    -483.255     -46.824
  O      608.262    -484.288     -45.834
  H      610.754    -483.495     -45.953
  H      609.080    -481.759     -44.569
  H      607.317    -481.537     -44.784
  H      608.446    -480.211     -45.184
  H      606.235    -487.313     -55.102
  H      606.294    -486.057     -53.888
  H      604.981    -487.210     -53.890

 3  4  5  6  7  8  9  10  11  12  23  26  30  31  33  0
 6-311+G(2d,p)
 ****
 35  36  37  38 0
 6-311+G(2d,p)
 ****
 1  2  13  14  15  16  17  18  19  20  21  22  24  25  27  28  29 0
 3-21G
 ****
 32  34  39  40  41  42  43  44  45  46  47  48  49 0
 3-21G
 ****


