%nproc=1
%NoSave
%Mem=1900MB
#P OB98/GEN NMR

erre ene a

0 1
  C       98.972      67.379     -23.754
  O       99.387      68.502     -22.996
  P       98.282      69.609     -22.635
  C       99.717      71.631     -23.419
  O       98.547      70.849     -23.616
  C      100.347      71.985     -24.763
  O      100.601      70.795     -25.538
  C       99.472      72.861     -25.650
  O       99.544      74.232     -25.295
  C      100.112      72.631     -27.010
  O      101.293      73.442     -27.142
  C      100.488      71.145     -26.940
  N       99.445      68.414     -31.068
  C      100.631      69.003     -30.675
  N      101.667      68.898     -31.534
  N      100.788      69.635     -29.542
  C       99.661      69.667     -28.787
  C       98.431      69.119     -29.069
  C       98.269      68.432     -30.331
  O       97.232      67.937     -30.758
  N       97.538      69.350     -28.057
  C       98.223      70.036     -27.163
  N       99.504      70.291     -27.580
  O       98.761      70.159     -21.211
  O       96.880      69.100     -22.600
  H      100.994      74.374     -27.137
  H       98.028      70.632     -20.772
  H       99.374      67.942     -31.954
  H       97.832      70.380     -26.215
  H      101.459      70.948     -27.404
  H       99.451      72.894     -27.840
  H      101.594      68.479     -32.450
  H       98.436      72.500     -25.669
  H      102.531      69.375     -31.301
  H      101.310      72.475     -24.568
  H      100.432      71.064     -22.818
  H       99.454      72.542     -22.873
  P       98.253      74.862     -24.579
  C       98.123      76.375     -26.686
  O       97.426      75.579     -25.749
  O       98.864      76.078     -23.739
  O       97.492      73.906     -23.724
  H       98.299      76.277     -22.969
  H       97.470      76.560     -27.545
  H       99.027      75.870     -27.039
  H       98.390      77.334     -26.235
  H       99.807      66.731     -23.917
  H       98.586      67.708     -24.696
  H       98.209      66.851     -23.221

 3  4  5  6  7  8  9  10  11  12  23  26  30  31 0
 6-311+G(2d,p)
 ****
 33  35  36  37  38 0
 6-311+G(2d,p)
 ****
 1  2  13  14  15  16  17  18  19  20  21  22  24  25 0
 3-21G
 ****
 27  28  29  32  34  39  40  41  42  43  44  45  46  47  48  49 0
 3-21G
 ****


