%nproc=1
%NoSave
%Mem=1900MB
#P OB98/GEN NMR

erre ene a

0 1
  C      243.424     449.167    -296.497
  O      242.769     448.006    -296.033
  P      241.895     447.102    -297.032
  C      239.845     448.404    -296.174
  O      240.535     447.926    -297.311
  C      238.988     449.610    -296.545
  O      239.808     450.711    -297.010
  C      238.022     449.353    -297.695
  O      236.975     448.429    -297.473
  C      237.625     450.768    -298.073
  O      236.609     451.272    -297.212
  C      238.959     451.525    -297.865
  N      239.615     451.854    -299.133
  C      239.726     453.209    -299.426
  O      239.311     454.101    -298.689
  N      240.307     453.509    -300.632
  C      240.742     452.611    -301.565
  O      241.210     452.949    -302.646
  C      240.574     451.196    -301.204
  C      240.033     450.880    -300.020
  O      241.686     445.697    -296.599
  O      242.672     447.244    -298.436
  H      235.818     450.706    -297.348
  H      242.747     448.154    -298.770
  H      240.385     454.484    -300.867
  H      240.919     450.454    -301.917
  H      239.900     449.840    -299.738
  H      238.778     452.465    -297.320
  H      237.235     450.816    -299.097
  H      238.601     448.929    -298.537
  H      238.469     449.952    -295.646
  H      240.575     448.711    -295.419
  H      239.237     447.597    -295.737
  P      236.336     447.520    -298.632
  C      234.453     449.072    -299.516
  O      235.722     448.489    -299.755
  O      235.504     446.367    -298.193
  O      237.656     446.955    -299.363
  H      237.465     446.080    -299.730
  H      234.185     449.667    -300.388
  H      234.502     449.745    -298.647
  H      233.701     448.307    -299.353
  H      243.950     449.628    -295.687
  H      242.701     449.852    -296.888
  H      244.117     448.901    -297.267

 3  4  5  6  7  8  9  10  11  12  13  23  28  29  30  31  32 0
 6-311+G(2d,p)
 ****
 33  34 0
 6-311+G(2d,p)
 ****
 1  2  14  15  16  17  18  19  20  21  22  24  25  26  27 0
 3-21G
 ****
 35  36  37  38  39  40  41  42  43  44  45 0
 3-21G
 ****


