%nproc=1
%NoSave
%Mem=1900MB
#P OB98/GEN NMR

erre ene a

0 1
  C      732.078     100.829     273.116
  O      732.430     101.414     271.856
  P      732.607     102.987     271.620
  C      735.207     103.088     271.616
  O      733.997     103.441     272.295
  C      736.305     104.117     271.907
  O      736.606     104.136     273.326
  C      737.646     103.825     271.235
  O      737.622     104.090     269.849
  C      738.574     104.743     272.044
  O      738.563     106.081     271.521
  C      737.938     104.710     273.447
  N      738.734     103.983     274.419
  C      739.865     104.631     274.923
  O      740.198     105.734     274.476
  N      740.605     104.004     275.888
  C      740.295     102.802     276.267
  N      741.055     102.240     277.251
  C      739.195     102.027     275.666
  C      738.465     102.665     274.757
  O      731.440     103.807     272.055
  O      732.885     103.166     270.049
  H      732.590     104.054     269.762
  H      737.633     106.386     271.565
  H      738.999     101.003     275.968
  H      737.623     102.181     274.281
  H      737.776     105.735     273.808
  H      739.611     104.392     272.018
  H      737.925     102.777     271.419
  H      735.933     105.107     271.614
  H      741.798     102.803     277.648
  H      735.000     103.074     270.543
  H      740.896     101.317     277.618
  H      735.506     102.080     271.927
  P      738.554     103.171     268.915
  C      736.825     102.098     267.297
  O      737.662     101.929     268.423
  O      739.593     102.506     269.952
  O      739.267     103.905     267.827
  H      740.474     102.463     269.540
  H      736.691     101.127     266.808
  H      737.252     102.804     266.572
  H      735.854     102.465     267.628
  H      732.023      99.765     273.012
  H      731.128     101.207     273.432
  H      732.821     101.078     273.845

 3  4  5  6  7  8  9  10  11  12  13  24  27  28  29  30  32 0
 6-311+G(2d,p)
 ****
 34  35 0
 6-311+G(2d,p)
 ****
 1  2  14  15  16  17  18  19  20  21  22  23  25  26 0
 3-21G
 ****
 31  33  36  37  38  39  40  41  42  43  44  45  46 0
 3-21G
 ****


