%nproc=1
%NoSave
%Mem=1900MB
#P OB98/GEN NMR

erre ene a

0 1
  C      376.908     189.850    -454.319
  O      375.666     189.188    -454.163
  P      374.646     189.039    -455.395
  C      375.648     186.691    -455.808
  O      374.468     187.461    -455.598
  C      375.333     185.204    -455.661
  O      375.240     184.867    -454.261
  C      374.010     184.773    -456.282
  O      374.118     184.675    -457.694
  C      373.764     183.459    -455.549
  O      374.545     182.406    -456.137
  C      374.293     183.778    -454.137
  N      373.230     184.109    -453.194
  C      372.805     183.083    -452.346
  O      373.316     181.961    -452.401
  N      371.826     183.352    -451.427
  C      371.297     184.539    -451.370
  N      370.378     184.765    -450.390
  C      371.675     185.632    -452.277
  C      372.640     185.354    -453.151
  O      375.039     189.782    -456.628
  O      373.228     189.475    -454.803
  H      374.246     182.314    -457.061
  H      373.054     190.442    -454.874
  H      371.199     186.599    -452.198
  H      372.993     186.109    -453.843
  H      374.862     182.927    -453.743
  H      372.716     183.142    -455.562
  H      373.220     185.487    -456.029
  H      376.164     184.632    -456.097
  H      370.281     184.042    -449.686
  H      376.390     186.977    -455.059
  H      370.140     185.704    -450.097
  H      376.048     186.911    -456.802
  P      372.791     184.936    -458.555
  C      373.521     187.352    -459.130
  O      373.175     186.073    -459.625
  O      371.815     185.667    -457.521
  O      372.179     183.699    -459.132
  H      371.159     185.035    -457.167
  H      373.975     187.925    -459.942
  H      374.243     187.274    -458.312
  H      372.625     187.881    -458.796
  H      377.436     189.842    -453.388
  H      376.737     190.861    -454.624
  H      377.489     189.347    -455.063

 3  4  5  6  7  8  9  10  11  12  13  23  27  28  29  30  32 0
 6-311+G(2d,p)
 ****
 34  35 0
 6-311+G(2d,p)
 ****
 1  2  14  15  16  17  18  19  20  21  22  24  25  26 0
 3-21G
 ****
 31  33  36  37  38  39  40  41  42  43  44  45  46 0
 3-21G
 ****


