%nproc=1
%NoSave
%Mem=1900MB
#P OB98/GEN NMR

erre ene a

0 1
  C      492.460     445.675     956.190
  O      491.865     446.841     955.639
  P      492.572     447.493     954.354
  C      491.173     445.887     952.868
  O      492.469     446.384     953.193
  C      490.762     446.353     951.477
  O      490.743     447.792     951.433
  C      491.699     445.923     950.358
  O      491.458     444.590     949.948
  C      491.323     446.913     949.265
  O      490.145     446.457     948.582
  C      491.017     448.194     950.068
  N      492.774     452.511     948.095
  C      491.593     451.840     947.845
  N      490.748     452.415     946.962
  N      491.273     450.701     948.412
  C      492.194     450.269     949.296
  C      493.400     450.840     949.624
  C      493.769     452.071     948.962
  O      494.830     452.671     949.090
  N      494.060     450.110     950.583
  C      493.237     449.112     950.856
  N      492.104     449.152     950.079
  O      494.120     447.477     954.738
  O      492.100     448.862     953.997
  H      490.392     445.667     948.065
  H      494.597     448.171     954.248
  H      492.965     453.388     947.650
  H      493.420     448.350     951.601
  H      490.113     448.690     949.685
  H      492.107     447.034     948.507
  H      490.881     453.344     946.594
  H      492.746     446.075     950.644
  H      489.859     451.961     946.798
  H      489.740     445.989     951.283
  H      490.445     446.255     953.594
  H      491.195     444.787     952.912
  P      492.590     443.908     949.031
  C      494.197     443.219     950.952
  O      493.956     444.075     949.851
  O      492.740     444.924     947.807
  O      492.263     442.526     948.573
  H      493.070     444.460     947.014
  H      493.816     442.210     950.772
  H      493.716     443.634     951.850
  H      495.273     443.160     951.126
  H      491.890     445.349     957.035
  H      493.460     445.897     956.498
  H      492.477     444.901     955.452

 3  4  5  6  7  8  9  10  11  12  23  26  30  31  33  0
 6-311+G(2d,p)
 ****
 35  36  37  38 0
 6-311+G(2d,p)
 ****
 1  2  13  14  15  16  17  18  19  20  21  22  24  25  27  28  29 0
 3-21G
 ****
 32  34  39  40  41  42  43  44  45  46  47  48  49 0
 3-21G
 ****


