%nproc=1
%NoSave
%Mem=1900MB
#P OB98/GEN NMR

erre ene a

0 1
  C     -128.564    -296.418    -209.215
  O     -128.671    -295.565    -210.350
  P     -128.831    -296.244    -211.796
  C     -131.007    -295.027    -212.502
  O     -129.616    -295.190    -212.722
  C     -131.645    -294.166    -213.595
  O     -131.292    -292.773    -213.364
  C     -131.193    -294.513    -215.020
  O     -132.308    -294.260    -215.891
  C     -130.105    -293.492    -215.297
  O     -129.875    -293.310    -216.690
  C     -130.683    -292.277    -214.579
  N     -126.906    -289.388    -216.462
  C     -127.756    -290.251    -217.057
  N     -128.740    -290.984    -216.488
  C     -128.796    -290.756    -215.166
  C     -127.972    -289.930    -214.416
  C     -126.986    -289.216    -215.122
  N     -126.123    -288.325    -214.522
  N     -128.319    -289.982    -213.083
  C     -129.334    -290.820    -213.027
  N     -129.671    -291.294    -214.259
  O     -129.918    -297.389    -211.528
  O     -127.578    -296.808    -212.377
  H     -129.482    -294.127    -217.050
  H     -129.502    -298.271    -211.607
  H     -127.637    -290.372    -218.133
  H     -129.848    -291.117    -212.117
  H     -131.466    -291.778    -215.167
  H     -129.169    -293.819    -214.839
  H     -130.842    -295.548    -215.143
  H     -132.736    -294.247    -213.509
  H     -131.158    -294.533    -211.542
  H     -125.543    -287.756    -215.112
  H     -126.303    -288.050    -213.562
  H     -131.490    -296.014    -212.465
  P     -132.873    -295.514    -216.727
  C     -135.086    -294.171    -216.513
  O     -134.310    -295.077    -217.287
  O     -133.213    -296.590    -215.589
  O     -131.916    -296.053    -217.737
  H     -133.143    -297.492    -215.960
  H     -135.668    -293.543    -217.192
  H     -134.462    -293.530    -215.883
  H     -135.770    -294.742    -215.878
  H     -128.464    -295.824    -208.331
  H     -127.705    -297.047    -209.321
  H     -129.443    -297.024    -209.140

 3  4  5  6  7  8  9  10  11  12  22  25  29  30  31  32 0
 6-311+G(2d,p)
 ****
 33  36  37 0
 6-311+G(2d,p)
 ****
 1  2  13  14  15  16  17  18  19  20  21  23  24  26 0
 3-21G
 ****
 27  28  34  35  38  39  40  41  42  43  44  45  46  47  48 0
 3-21G
 ****


