%nproc=1
%NoSave
%Mem=1900MB
#P OB98/GEN NMR

erre ene a

0 1
  C      289.171     -35.568     460.884
  O      287.908     -35.803     461.475
  H      289.322     -36.290     460.078
  H      289.960     -35.702     461.627
  H      289.220     -34.557     460.467
  P      287.374     -34.716     462.524
  C      285.012     -34.496     461.461
  O      286.245     -33.863     461.763
  C      283.907     -33.450     461.325
  O      283.537     -32.993     462.657
  C      284.314     -32.214     460.512
  O      283.175     -31.769     459.768
  C      284.637     -31.189     461.584
  O      284.540     -29.843     461.142
  C      283.600     -31.552     462.652
  N      283.949     -31.037     463.974
  C      283.580     -29.728     464.267
  O      282.909     -29.006     463.533
  N      284.016     -29.249     465.477
  C      284.785     -29.923     466.380
  O      285.162     -29.431     467.437
  C      285.151     -31.296     466.009
  C      284.727     -31.780     464.840
  O      288.599     -33.694     462.637
  O      286.954     -35.257     463.850
  H      289.209     -33.970     463.345
  H      285.239     -29.703     460.471
  H      283.758     -28.303     465.704
  H      285.769     -31.856     466.697
  H      284.996     -32.783     464.526
  H      282.610     -31.182     462.363
  H      285.654     -31.350     461.960
  H      285.157     -32.381     459.835
  H      283.020     -33.928     460.893
  H      284.752     -35.186     462.268
  H      285.117     -35.065     460.529
  P      283.416     -31.346     458.237
  C      282.425     -33.463     457.057
  O      283.576     -32.723     457.432
  O      284.898     -30.752     458.310
  O      282.378     -30.405     457.721
  H      285.465     -31.219     458.949
  H      282.724     -34.346     456.532
  H      281.806     -32.863     456.423
  H      281.877     -33.738     457.934

 6  7  8  9  10  11  12  13  14  15  16  27  31  32  33  34  35 0
 6-311+G(2d,p)
 ****
 36  37 0
 6-311+G(2d,p)
 ****
 1  2  3  4  5  17  18  19  20  21  22  23  24  25 0
 3-21G
 ****
 26  28  29  30  38  39  40  41  42  43  44  45 0
 3-21G
 ****


