%nproc=1
%NoSave
%Mem=1900MB
#P OB98/GEN NMR

erre ene a

0 1
  C     -337.115     284.487    -381.031
  O     -336.961     283.353    -380.200
  H     -337.540     285.301    -380.436
  H     -337.798     284.261    -381.852
  H     -336.148     284.811    -381.427
  P     -336.170     282.082    -380.768
  C     -334.763     281.375    -378.721
  O     -335.909     281.103    -379.523
  C     -335.076     281.089    -377.254
  O     -335.916     282.132    -376.714
  C     -335.835     279.785    -377.024
  O     -334.974     278.667    -377.141
  C     -336.385     280.022    -375.626
  O     -335.384     279.772    -374.628
  C     -336.742     281.529    -375.685
  N     -338.154     281.782    -375.943
  C     -338.968     281.962    -374.823
  O     -338.544     281.879    -373.669
  N     -340.287     282.221    -375.078
  C     -340.880     282.236    -376.307
  O     -342.082     282.423    -376.476
  C     -339.981     282.007    -377.452
  C     -338.684     281.794    -377.217
  O     -334.961     282.380    -381.594
  O     -337.280     281.295    -381.612
  H     -334.656     280.401    -374.801
  H     -337.166     281.485    -382.562
  H     -340.891     282.341    -374.281
  H     -340.419     282.005    -378.443
  H     -338.009     281.616    -378.052
  H     -336.469     282.021    -374.744
  H     -337.232     279.379    -375.393
  H     -336.676     279.704    -377.723
  H     -334.130     281.091    -376.697
  H     -334.493     282.427    -378.840
  H     -333.931     280.753    -379.072
  P     -334.988     277.756    -378.456
  C     -332.484     278.129    -378.847
  O     -333.508     277.162    -378.650
  O     -335.564     278.401    -379.673
  O     -335.839     276.475    -378.027
  H     -336.724     276.509    -378.438
  H     -331.543     277.633    -378.965
  H     -332.440     278.780    -377.999
  H     -332.698     278.701    -379.725

 6  7  8  9  10  11  12  13  14  15  16  26  31  32  33  34  35 0
 6-311+G(2d,p)
 ****
 36  37 0
 6-311+G(2d,p)
 ****
 1  2  3  4  5  17  18  19  20  21  22  23  24  25 0
 3-21G
 ****
 27  28  29  30  38  39  40  41  42  43  44  45 0
 3-21G
 ****


