%nproc=1
%NoSave
%Mem=1900MB
#P OB98/GEN NMR

erre ene a

0 1
  C      162.473     -88.314     -17.797
  O      163.250     -88.929     -16.782
  P      164.265     -90.099     -17.204
  C      162.375     -91.858     -16.897
  O      163.395     -91.339     -17.741
  C      162.369     -93.387     -16.932
  O      161.841     -93.843     -18.207
  C      163.752     -94.017     -16.763
  O      163.634     -95.257     -16.053
  C      164.170     -94.346     -18.186
  O      165.149     -95.382     -18.221
  C      162.817     -94.724     -18.797
  N      161.378     -96.973     -23.094
  C      160.982     -97.232     -21.793
  N      160.157     -98.283     -21.608
  N      161.354     -96.511     -20.766
  C      162.193     -95.491     -21.099
  C      162.642     -95.130     -22.348
  C      162.226     -95.945     -23.477
  O      162.560     -95.785     -24.650
  N      163.443     -94.017     -22.293
  C      163.515     -93.730     -21.008
  N      162.802     -94.613     -20.240
  O      164.821     -90.612     -15.796
  O      165.382     -89.663     -18.098
  H      165.150     -95.746     -19.126
  H      165.734     -90.294     -15.664
  H      161.072     -97.565     -23.849
  H      164.087     -92.916     -20.583
  H      162.535     -95.750     -18.534
  H      164.595     -93.458     -18.671
  H      159.882     -98.916     -22.352
  H      164.487     -93.379     -16.258
  H      159.888     -98.518     -20.664
  H      161.681     -93.752     -16.155
  H      161.407     -91.484     -17.237
  H      162.534     -91.509     -15.873
  P      164.875     -95.656     -15.110
  C      166.102     -97.200     -16.820
  O      166.095     -95.976     -16.102
  O      164.456     -97.091     -14.542
  O      165.158     -94.669     -14.027
  H      164.897     -97.259     -13.686
  H      166.047     -96.976     -17.890
  H      165.259     -97.846     -16.540
  H      167.034     -97.728     -16.609
  H      161.851     -87.560     -17.362
  H      161.860     -89.051     -18.273
  H      163.122     -87.867     -18.521

 3  4  5  6  7  8  9  10  11  12  23  26  30  31 0
 6-311+G(2d,p)
 ****
 33  35  36  37  38 0
 6-311+G(2d,p)
 ****
 1  2  13  14  15  16  17  18  19  20  21  22  24  25 0
 3-21G
 ****
 27  28  29  32  34  39  40  41  42  43  44  45  46  47  48  49 0
 3-21G
 ****


