%nproc=1
%NoSave
%Mem=1900MB
#P OB98/GEN NMR

erre ene a

0 1
  C      120.153      60.140      70.559
  O      118.946      60.003      69.835
  H      119.952      59.947      71.616
  H      120.537      61.158      70.454
  H      120.896      59.422      70.202
  P      119.047      60.077      68.239
  C      118.966      62.696      68.082
  O      119.700      61.497      67.869
  C      118.829      63.464      66.769
  O      120.108      63.633      66.127
  C      117.990      62.749      65.723
  O      116.616      62.738      66.037
  C      118.335      63.567      64.488
  O      117.602      64.799      64.461
  C      119.845      63.834      64.712
  N      120.690      62.990      63.880
  C      120.904      63.443      62.572
  O      120.401      64.499      62.191
  N      121.659      62.670      61.725
  C      122.175      61.560      62.149
  N      122.903      60.837      61.258
  C      121.996      61.060      63.526
  C      121.246      61.814      64.327
  O      117.520      60.265      67.801
  O      119.739      58.924      67.590
  H      118.118      65.413      63.902
  H      117.077      61.008      68.242
  H      122.453      60.132      63.839
  H      121.063      61.519      65.353
  H      120.088      64.881      64.491
  H      118.098      63.037      63.564
  H      118.367      61.730      65.567
  H      118.424      64.458      66.998
  H      122.987      61.201      60.316
  H      119.445      63.317      68.845
  H      123.324      59.944      61.465
  H      117.977      62.414      68.459
  P      115.684      61.517      65.579
  C      114.276      62.457      63.640
  O      115.432      61.710      64.005
  O      114.444      61.326      66.386
  O      116.680      60.262      65.610
  H      117.451      60.341      65.021
  H      114.213      62.519      62.574
  H      114.344      63.443      64.051
  H      113.402      61.971      64.021

 6  7  8  9  10  11  12  13  14  15  16  26  30  31  32  33  35 0
 6-311+G(2d,p)
 ****
 37  38 0
 6-311+G(2d,p)
 ****
 1  2  3  4  5  17  18  19  20  21  22  23  24  25 0
 3-21G
 ****
 27  28  29  34  36  39  40  41  42  43  44  45  46 0
 3-21G
 ****


