%nproc=1
%NoSave
%Mem=1900MB
#P OB98/GEN NMR

erre ene a

0 1
  C      -29.607    -119.437     104.589
  O      -30.558    -118.440     104.969
  P      -30.474    -117.785     106.427
  C      -28.501    -117.172     107.983
  O      -29.007    -117.179     106.653
  C      -27.104    -116.543     108.008
  O      -26.227    -117.161     107.035
  C      -27.111    -115.065     107.639
  O      -27.699    -114.180     108.568
  C      -25.660    -114.819     107.264
  O      -24.853    -114.579     108.416
  C      -25.276    -116.164     106.602
  N      -25.222    -116.079     105.142
  C      -24.087    -115.480     104.607
  O      -23.188    -115.000     105.293
  N      -24.036    -115.416     103.240
  C      -25.002    -115.851     102.380
  O      -24.915    -115.748     101.163
  C      -26.189    -116.454     103.006
  C      -26.245    -116.540     104.337
  O      -30.995    -118.622     107.545
  O      -31.368    -116.457     106.267
  H      -24.884    -115.383     108.967
  H      -31.899    -116.355     107.080
  H      -23.217    -114.991     102.833
  H      -26.978    -116.805     102.355
  H      -27.111    -116.982     104.819
  H      -24.291    -116.496     106.953
  H      -25.554    -113.946     106.612
  H      -27.698    -114.954     106.715
  H      -26.666    -116.707     108.995
  H      -28.465    -118.191     108.371
  H      -29.196    -116.620     108.625
  P      -29.214    -113.665     108.456
  C      -31.563    -114.720     108.750
  O      -30.181    -114.814     109.016
  O      -29.616    -112.990     107.188
  O      -29.268    -112.585     109.646
  H      -29.878    -111.870     109.385
  H      -32.067    -115.572     109.217
  H      -31.749    -114.752     107.673
  H      -31.972    -113.798     109.172
  H      -29.811    -119.762     103.590
  H      -29.678    -120.270     105.256
  H      -28.621    -119.025     104.636

 3  4  5  6  7  8  9  10  11  12  13  23  28  29  30  31  32 0
 6-311+G(2d,p)
 ****
 33  34 0
 6-311+G(2d,p)
 ****
 1  2  14  15  16  17  18  19  20  21  22  24  25  26  27 0
 3-21G
 ****
 35  36  37  38  39  40  41  42  43  44  45 0
 3-21G
 ****


