%nproc=1
%NoSave
%Mem=1900MB
#P OB98/GEN NMR

erre ene a

0 1
  C     -302.537      99.753     -51.543
  O     -303.244     100.971     -51.422
  H     -302.497      99.443     -52.592
  H     -301.515      99.900     -51.180
  H     -303.017      98.975     -50.940
  P     -304.771     100.959     -51.924
  C     -305.715      99.480     -50.019
  O     -305.686     100.771     -50.615
  C     -305.836      99.606     -48.501
  O     -304.696     100.373     -48.020
  C     -307.122     100.307     -48.028
  O     -307.775      99.533     -47.014
  C     -306.631     101.605     -47.409
  O     -307.414     102.016     -46.293
  C     -305.201     101.261     -47.009
  N     -304.316     105.452     -44.244
  C     -304.919     104.286     -43.926
  N     -305.037     103.172     -44.679
  C     -304.418     103.332     -45.864
  C     -303.743     104.453     -46.314
  C     -303.719     105.562     -45.453
  N     -303.152     106.771     -45.795
  N     -303.242     104.245     -47.590
  C     -303.647     103.035     -47.915
  N     -304.375     102.448     -46.912
  O     -304.895      99.551     -52.680
  O     -305.138     102.094     -52.816
  H     -307.320     101.335     -45.603
  H     -305.121      99.715     -53.615
  H     -305.377     104.244     -42.940
  H     -303.486     102.553     -48.875
  H     -305.158     100.733     -46.047
  H     -306.657     102.396     -48.167
  H     -307.823     100.495     -48.846
  H     -305.760      98.604     -48.058
  H     -304.790      98.943     -50.261
  H     -303.283     107.546     -45.169
  H     -302.807     106.893     -46.737
  H     -306.564      98.919     -50.424
  P     -309.353      99.799     -46.823
  C     -309.939      98.184     -48.772
  O     -310.146      98.531     -47.405
  O     -309.654     100.969     -47.873
  O     -309.726     100.203     -45.435
  H     -310.052     101.734     -47.415
  H     -310.529      97.325     -49.015
  H     -308.904      97.963     -48.931
  H     -310.228      99.004     -49.396

 6  7  8  9  10  11  12  13  14  15  25  28  32  33  34  35 0
 6-311+G(2d,p)
 ****
 36  39  40 0
 6-311+G(2d,p)
 ****
 1  2  3  4  5  16  17  18  19  20  21  22  23  24 0
 3-21G
 ****
 26  27  29  30  31  37  38  41  42  43  44  45  46  47  48 0
 3-21G
 ****


