%nproc=1
%NoSave
%Mem=1900MB
#P OB98/GEN NMR

erre ene a

0 1
  C      207.637    -150.883      86.340
  O      207.728    -151.475      87.642
  P      208.482    -150.770      88.869
  C      208.168    -148.349      89.702
  O      207.552    -149.612      89.468
  C      207.150    -147.301      90.165
  O      206.099    -147.150      89.193
  C      206.447    -147.629      91.475
  O      207.297    -147.399      92.584
  C      205.236    -146.705      91.396
  O      205.573    -145.373      91.817
  C      204.908    -146.737      89.890
  N      203.780    -147.606      89.582
  C      202.532    -146.989      89.456
  O      202.410    -145.781      89.658
  N      201.446    -147.764      89.127
  C      201.583    -149.048      89.011
  N      200.474    -149.763      88.677
  C      202.862    -149.749      89.225
  C      203.908    -148.973      89.503
  O      209.875    -150.328      88.552
  O      208.501    -151.872      90.032
  H      204.743    -144.858      91.797
  H      209.301    -151.747      90.576
  H      202.927    -150.822      89.146
  H      204.888    -149.405      89.666
  H      204.681    -145.727      89.527
  H      204.409    -147.042      92.028
  H      206.110    -148.672      91.464
  H      207.675    -146.338      90.243
  H      199.614    -149.252      88.530
  H      208.630    -148.015      88.766
  H      200.471    -150.765      88.560
  H      208.953    -148.474      90.454
  P      207.848    -148.639      93.434
  C      209.638    -150.453      93.125
  O      209.148    -149.200      92.685
  O      206.835    -149.670      93.805
  O      208.469    -147.953      94.744
  H      208.372    -148.565      95.497
  H      210.231    -150.900      92.322
  H      208.818    -151.129      93.382
  H      210.278    -150.305      93.999
  H      207.091    -151.534      85.690
  H      208.621    -150.731      85.948
  H      207.131    -149.943      86.410

 3  4  5  6  7  8  9  10  11  12  13  23  27  28  29  30  32 0
 6-311+G(2d,p)
 ****
 34  35 0
 6-311+G(2d,p)
 ****
 1  2  14  15  16  17  18  19  20  21  22  24  25  26 0
 3-21G
 ****
 31  33  36  37  38  39  40  41  42  43  44  45  46 0
 3-21G
 ****


