%nproc=1
%NoSave
%Mem=1900MB
#P OB98/GEN NMR

erre ene a

0 1
  C      710.295     153.585     257.803
  O      711.321     154.489     257.415
  P      711.174     155.395     256.104
  C      712.595     153.811     254.662
  O      712.475     155.125     255.201
  C      714.060     153.518     254.310
  O      714.449     154.351     253.175
  C      715.035     153.821     255.465
  O      715.907     152.744     255.822
  C      715.726     155.092     255.011
  O      716.971     155.341     255.645
  C      715.747     154.897     253.490
  N      716.019     156.153     252.765
  C      717.154     156.851     253.135
  O      717.956     156.497     253.997
  N      717.342     158.048     252.482
  C      716.476     158.662     251.631
  O      716.661     159.757     251.174
  C      715.252     157.869     251.322
  C      715.099     156.655     251.866
  O      710.896     156.847     256.348
  O      710.023     154.653     255.269
  H      716.842     155.219     256.611
  H      710.227     153.729     255.029
  H      718.157     158.578     252.739
  H      714.536     158.321     250.654
  H      714.215     156.065     251.649
  H      716.493     154.163     253.196
  H      715.064     155.944     255.257
  H      714.480     154.028     256.405
  H      714.132     152.470     254.006
  H      711.999     153.741     253.751
  H      712.209     153.086     255.373
  P      715.493     151.448     256.652
  C      715.810     152.204     259.110
  O      716.300     151.448     258.029
  O      715.550     150.156     255.884
  O      713.982     151.749     257.111
  H      713.494     150.914     257.193
  H      716.659     152.505     259.745
  H      715.143     151.590     259.715
  H      715.280     153.096     258.777
  H      710.586     153.079     258.700
  H      710.137     152.869     257.024
  H      709.389     154.127     257.978

 3  4  5  6  7  8  9  10  11  12  13  23  28  29  30  31  32 0
 6-311+G(2d,p)
 ****
 33  34 0
 6-311+G(2d,p)
 ****
 1  2  14  15  16  17  18  19  20  21  22  24  25  26  27 0
 3-21G
 ****
 35  36  37  38  39  40  41  42  43  44  45 0
 3-21G
 ****


