%nproc=1
%NoSave
%Mem=1900MB
#P OB98/GEN NMR

erre ene a

0 1
  C     -384.063    -102.947     290.714
  O     -384.372    -101.633     290.291
  H     -384.801    -103.254     291.465
  H     -383.072    -102.988     291.170
  H     -384.113    -103.637     289.870
  P     -383.347    -100.895     289.301
  C     -382.244     -99.449     291.155
  O     -382.083    -100.507     290.207
  C     -380.950     -99.228     291.929
  O     -380.646    -100.382     292.736
  C     -379.737     -99.020     291.021
  O     -379.736     -97.719     290.464
  C     -378.606     -99.326     291.989
  O     -378.326     -98.203     292.827
  C     -379.201    -100.501     292.800
  N     -378.763    -101.807     292.318
  C     -377.378    -102.035     292.330
  O     -376.609    -101.173     292.749
  N     -376.916    -103.239     291.856
  C     -377.742    -104.136     291.423
  N     -377.212    -105.305     290.969
  C     -379.208    -103.934     291.402
  C     -379.640    -102.756     291.851
  O     -383.891     -99.763     288.486
  O     -382.788    -102.084     288.386
  H     -377.545     -98.453     293.356
  H     -383.346    -102.200     287.595
  H     -379.864    -104.721     291.033
  H     -380.703    -102.534     291.874
  H     -378.922    -100.411     293.858
  H     -377.690     -99.579     291.454
  H     -379.725     -99.788     290.222
  H     -381.088     -98.367     292.598
  H     -376.206    -105.392     290.994
  H     -383.047     -99.753     291.841
  H     -377.768    -106.104     290.689
  H     -382.550     -98.523     290.653
  P     -379.303     -97.485     288.939
  C     -376.825     -97.062     289.547
  O     -377.757     -97.915     288.862
  O     -379.623     -96.140     288.380
  O     -380.046     -98.684     288.159
  H     -381.016     -98.524     288.080
  H     -375.834     -97.447     289.426
  H     -377.070     -97.029     290.588
  H     -376.877     -96.075     289.137

 6  7  8  9  10  11  12  13  14  15  16  26  30  31  32  33  35 0
 6-311+G(2d,p)
 ****
 37  38 0
 6-311+G(2d,p)
 ****
 1  2  3  4  5  17  18  19  20  21  22  23  24  25 0
 3-21G
 ****
 27  28  29  34  36  39  40  41  42  43  44  45  46 0
 3-21G
 ****


