%nproc=1
%NoSave
%Mem=1900MB
#P OB98/GEN NMR

erre ene a

0 1
  C      332.825     618.852     202.558
  O      333.130     620.028     203.322
  P      333.786     621.278     202.571
  C      331.640     622.530     201.851
  O      332.786     622.532     202.692
  C      330.699     623.698     202.207
  O      329.611     623.738     201.251
  C      330.040     623.590     203.585
  O      330.727     624.153     204.702
  C      328.785     624.446     203.375
  O      329.107     625.836     203.561
  C      328.425     624.192     201.915
  N      323.372     623.540     201.377
  C      324.138     624.657     201.496
  N      325.473     624.733     201.650
  C      326.029     623.515     201.626
  C      325.372     622.293     201.510
  C      323.981     622.334     201.382
  N      323.203     621.204     201.265
  N      326.295     621.258     201.554
  C      327.462     621.837     201.710
  N      327.363     623.202     201.756
  O      334.314     621.022     201.197
  O      334.965     621.700     203.570
  H      329.704     626.085     202.821
  H      335.745     621.988     203.044
  H      323.595     625.599     201.497
  H      328.404     621.317     201.806
  H      328.081     625.107     201.406
  H      327.996     624.208     204.101
  H      329.753     622.552     203.801
  H      331.258     624.639     202.127
  H      331.100     621.580     201.955
  H      322.213     621.312     201.233
  H      323.641     620.288     201.324
  H      331.998     622.584     200.811
  P      331.433     623.205     205.799
  C      333.883     623.572     204.981
  O      332.923     623.781     205.978
  O      331.368     621.743     205.515
  O      330.704     623.646     207.156
  H      330.917     624.548     207.444
  H      334.762     624.225     205.187
  H      333.493     623.815     203.998
  H      334.216     622.531     205.003
  H      332.395     618.112     203.199
  H      333.723     618.467     202.122
  H      332.130     619.100     201.783

 3  4  5  6  7  8  9  10  11  12  22  25  29  30  31  32 0
 6-311+G(2d,p)
 ****
 33  36  37 0
 6-311+G(2d,p)
 ****
 1  2  13  14  15  16  17  18  19  20  21  23  24  26 0
 3-21G
 ****
 27  28  34  35  38  39  40  41  42  43  44  45  46  47  48 0
 3-21G
 ****


