%nproc=1
%NoSave
%Mem=1900MB
#P OB98/GEN NMR

erre ene a

0 1
  C     -499.008    1095.688     822.158
  O     -497.797    1094.943     822.317
  P     -497.431    1094.499     823.819
  C     -498.043    1092.039     823.287
  O     -498.243    1093.150     824.144
  C     -498.252    1090.714     824.024
  O     -497.305    1090.573     825.127
  C     -499.656    1090.555     824.625
  O     -499.998    1089.163     824.540
  C     -499.446    1090.927     826.080
  O     -500.501    1090.439     826.903
  C     -498.079    1090.284     826.314
  N     -496.347    1088.987     830.884
  C     -497.078    1088.259     829.957
  N     -497.337    1086.976     830.289
  N     -497.503    1088.738     828.826
  C     -497.130    1090.025     828.612
  C     -496.394    1090.851     829.435
  C     -495.958    1090.311     830.706
  O     -495.305    1090.920     831.551
  N     -496.195    1092.087     828.855
  C     -496.867    1092.012     827.723
  N     -497.404    1090.777     827.508
  O     -498.162    1095.607     824.712
  O     -495.969    1094.445     824.084
  H     -500.493    1089.458     826.846
  H     -497.512    1096.275     825.009
  H     -496.052    1088.575     831.744
  H     -496.971    1092.817     827.012
  H     -498.145    1089.193     826.425
  H     -499.388    1092.013     826.192
  H     -496.996    1086.528     831.128
  H     -500.424    1091.163     824.141
  H     -497.838    1086.399     829.618
  H     -498.056    1089.892     823.324
  H     -497.029    1092.058     822.874
  H     -498.715    1092.126     822.426
  P     -501.352    1088.768     823.776
  C     -499.972    1087.390     822.079
  O     -500.957    1088.381     822.279
  O     -502.098    1090.177     823.627
  O     -502.205    1087.791     824.507
  H     -503.057    1090.052     823.760
  H     -500.148    1086.913     821.108
  H     -499.995    1086.628     822.863
  H     -498.986    1087.858     822.066
  H     -499.147    1095.926     821.124
  H     -498.948    1096.592     822.727
  H     -499.835    1095.103     822.503

 3  4  5  6  7  8  9  10  11  12  23  26  30  31 0
 6-311+G(2d,p)
 ****
 33  35  36  37  38 0
 6-311+G(2d,p)
 ****
 1  2  13  14  15  16  17  18  19  20  21  22  24  25 0
 3-21G
 ****
 27  28  29  32  34  39  40  41  42  43  44  45  46  47  48  49 0
 3-21G
 ****


