%nproc=1
%NoSave
%Mem=1900MB
#P OB98/GEN NMR

erre ene a

0 1
  C     -149.432     116.380     454.176
  O     -149.829     115.530     455.253
  P     -151.100     115.777     456.193
  C     -152.536     113.986     454.914
  O     -152.410     115.323     455.387
  C     -153.558     113.153     455.746
  O     -154.887     113.729     455.556
  C     -153.630     111.727     455.203
  O     -152.676     110.763     455.637
  C     -155.075     111.305     455.415
  O     -155.269     110.612     456.651
  C     -155.834     112.650     455.426
  N     -159.929     111.169     452.720
  C     -159.386     110.618     453.868
  N     -159.974     109.481     454.328
  N     -158.338     111.100     454.496
  C     -157.800     112.175     453.874
  C     -158.219     112.818     452.740
  C     -159.403     112.289     452.083
  O     -159.939     112.762     451.067
  N     -157.402     113.863     452.401
  C     -156.469     113.841     453.327
  N     -156.674     112.838     454.250
  O     -151.153     117.109     456.870
  O     -150.953     114.649     457.325
  H     -156.219     110.591     456.845
  H     -151.323     115.035     458.157
  H     -160.728     110.770     452.288
  H     -155.627     114.528     453.373
  H     -156.506     112.709     456.298
  H     -155.402     110.626     454.618
  H     -160.700     109.002     453.829
  H     -153.498     111.785     454.104
  H     -159.459     108.960     455.034
  H     -153.327     113.213     456.812
  H     -151.542     113.530     454.972
  H     -152.830     113.988     453.854
  P     -151.902     109.706     454.700
  C     -150.109     111.351     453.884
  O     -151.206     110.528     453.519
  O     -153.082     108.932     453.946
  O     -151.010     108.759     455.427
  H     -152.732     108.087     453.552
  H     -149.924     112.077     453.079
  H     -149.214     110.745     454.031
  H     -150.334     111.904     454.803
  H     -148.551     115.984     453.715
  H     -149.227     117.360     454.552
  H     -150.220     116.432     453.454

 3  4  5  6  7  8  9  10  11  12  23  26  30  31 0
 6-311+G(2d,p)
 ****
 33  35  36  37  38 0
 6-311+G(2d,p)
 ****
 1  2  13  14  15  16  17  18  19  20  21  22  24  25 0
 3-21G
 ****
 27  28  29  32  34  39  40  41  42  43  44  45  46  47  48  49 0
 3-21G
 ****


