%nproc=1
%NoSave
%Mem=1900MB
#P OB98/GEN NMR

erre ene a

0 1
  C       12.077     360.216    -142.148
  O       12.345     361.580    -142.414
  H       12.977     359.634    -142.361
  H       11.266     359.862    -142.790
  H       11.812     360.084    -141.095
  P       11.150     362.613    -142.137
  C       11.222     363.359    -144.615
  O       11.344     363.748    -143.255
  C       11.592     364.518    -145.536
  O       10.694     365.627    -145.340
  C       12.993     365.077    -145.318
  O       13.968     364.273    -145.964
  C       12.864     366.441    -145.973
  O       12.982     366.309    -147.403
  C       11.425     366.854    -145.602
  N       11.681     371.694    -143.904
  C       12.012     371.141    -145.089
  N       11.960     369.841    -145.457
  C       11.501     369.082    -144.448
  C       11.125     369.505    -143.184
  C       11.215     370.881    -142.925
  N       10.863     371.448    -141.718
  N       10.710     368.436    -142.413
  C       10.788     367.397    -143.215
  N       11.297     367.727    -144.448
  O       11.012     363.082    -140.729
  O        9.898     361.788    -142.704
  H       12.351     365.622    -147.687
  H       10.146     361.301    -143.510
  H       12.371     371.836    -145.847
  H       10.473     366.389    -142.966
  H       10.924     367.364    -146.434
  H       13.645     367.132    -145.650
  H       13.207     365.210    -144.250
  H       11.465     364.179    -146.574
  H       10.204     363.025    -144.832
  H       11.120     372.411    -141.560
  H       10.635     370.827    -140.952
  H       11.903     362.516    -144.777
  P       14.619     363.017    -145.214
  C       16.981     363.813    -145.861
  O       16.039     362.752    -145.925
  O       13.746     361.817    -145.108
  O       15.039     363.580    -143.775
  H       14.881     362.910    -143.087
  H       17.880     363.523    -146.364
  H       17.201     364.034    -144.837
  H       16.572     364.682    -146.333

 6  7  8  9  10  11  12  13  14  15  25  28  32  33  34  35 0
 6-311+G(2d,p)
 ****
 36  39  40 0
 6-311+G(2d,p)
 ****
 1  2  3  4  5  16  17  18  19  20  21  22  23  24 0
 3-21G
 ****
 26  27  29  30  31  37  38  41  42  43  44  45  46  47 0
 3-21G
 ****
 48 0
 3-21G
 ****


