%nproc=1
%NoSave
%Mem=1900MB
#P OB98/GEN NMR

erre ene a

0 1
  C       64.109      95.493     140.881
  O       62.985      96.153     141.429
  H       63.777      94.879     140.040
  H       64.574      94.843     141.627
  H       64.837      96.222     140.515
  P       63.199      97.090     142.711
  C       63.729      94.987     144.116
  O       64.164      96.276     143.703
  C       64.763      94.348     145.039
  O       65.996      94.119     144.331
  C       65.119      95.194     146.262
  O       64.147      95.035     147.280
  C       66.460      94.585     146.637
  O       66.251      93.324     147.305
  C       67.096      94.345     145.255
  N       71.612      96.658     145.456
  C       71.110      95.626     146.226
  N       71.914      95.167     147.208
  N       69.923      95.102     146.057
  C       69.204      95.709     145.084
  C       69.585      96.749     144.267
  C       70.925      97.276     144.422
  O       71.418      98.175     143.742
  N       68.553      97.161     143.462
  C       67.565      96.335     143.755
  N       67.907      95.437     144.743
  O       61.953      97.606     143.366
  O       64.135      98.276     142.181
  H       65.931      93.525     148.203
  H       63.604      99.031     141.870
  H       72.530      97.027     145.639
  H       66.590      96.337     143.281
  H       67.728      93.448     145.241
  H       67.038      95.216     147.314
  H       72.769      95.624     147.484
  H       65.270      96.245     145.994
  H       71.540      94.449     147.820
  H       64.379      93.364     145.343
  H       63.594      94.379     143.214
  H       62.767      95.057     144.636
  P       63.621      96.288     148.142
  C       65.514      95.768     149.827
  O       64.874      96.750     149.029
  O       62.371      96.037     148.911
  O       63.509      97.478     147.081
  H       62.649      97.481     146.592
  H       66.326      96.216     150.360
  H       65.887      94.986     149.199
  H       64.811      95.361     150.524

 6  7  8  9  10  11  12  13  14  15  26  29  33  34 0
 6-311+G(2d,p)
 ****
 36  38  39  40  41 0
 6-311+G(2d,p)
 ****
 1  2  3  4  5  16  17  18  19  20  21  22  23  24  25 0
 3-21G
 ****
 27  28  30  31  32  35  37  42  43  44  45  46  47 0
 3-21G
 ****
 48  49 0
 3-21G
 ****


