%nproc=1
%NoSave
%Mem=1900MB
#P OB98/GEN NMR

erre ene a

0 1
  C      -31.693     273.179     221.634
  O      -33.052     273.481     221.373
  H      -31.545     272.104     221.493
  H      -31.445     273.433     222.666
  H      -31.034     273.717     220.948
  P      -33.515     275.014     221.367
  C      -32.765     275.599     218.965
  O      -33.867     275.403     219.846
  C      -33.183     275.334     217.512
  O      -33.389     273.907     217.340
  C      -34.476     276.048     217.101
  O      -34.364     276.483     215.743
  C      -35.529     274.958     217.207
  O      -36.645     275.198     216.350
  C      -34.726     273.713     216.835
  N      -38.489     270.360     216.367
  C      -38.130     271.417     215.553
  N      -38.898     271.631     214.462
  N      -37.115     272.205     215.792
  C      -36.415     271.859     216.904
  C      -36.663     270.835     217.789
  C      -37.811     269.985     217.529
  O      -38.185     269.043     218.220
  N      -35.746     270.819     218.814
  C      -34.941     271.836     218.543
  N      -35.316     272.503     217.408
  O      -32.578     275.962     222.053
  O      -34.951     274.996     222.075
  H      -36.296     275.235     215.432
  H      -34.898     275.344     222.983
  H      -39.286     269.794     216.144
  H      -34.086     272.130     219.141
  H      -34.672     273.555     215.752
  H      -35.898     274.894     218.242
  H      -39.685     271.054     214.206
  H      -34.700     276.899     217.743
  H      -38.646     272.385     213.835
  H      -32.350     275.620     216.854
  H      -31.968     274.902     219.254
  H      -32.398     276.624     219.070
  P      -34.529     278.043     215.405
  C      -32.538     278.881     216.797
  O      -33.088     278.750     215.492
  O      -35.619     278.745     216.145
  O      -34.820     278.037     213.824
  H      -35.440     278.764     213.613
  H      -31.584     279.362     216.735
  H      -32.421     277.911     217.234
  H      -33.195     279.468     217.404

 6  7  8  9  10  11  12  13  14  15  26  29  33  34 0
 6-311+G(2d,p)
 ****
 36  38  39  40  41 0
 6-311+G(2d,p)
 ****
 1  2  3  4  5  16  17  18  19  20  21  22  23  24  25 0
 3-21G
 ****
 27  28  30  31  32  35  37  42  43  44  45  46  47 0
 3-21G
 ****
 48  49 0
 3-21G
 ****


