%nproc=1
%NoSave
%Mem=1900MB
#P OB98/GEN NMR

erre ene a

0 1
  C     -166.910    -899.520     360.937
  O     -167.179    -898.404     361.764
  H     -167.728    -899.645     360.231
  H     -166.829    -900.430     361.540
  H     -165.977    -899.364     360.381
  P     -166.139    -898.124     362.956
  C     -164.671    -896.037     363.530
  O     -165.728    -896.583     362.742
  C     -163.569    -895.493     362.619
  O     -162.916    -896.565     361.917
  C     -164.058    -894.541     361.522
  O     -164.340    -893.237     362.006
  C     -162.849    -894.564     360.608
  O     -161.789    -893.789     361.175
  C     -162.508    -896.076     360.611
  N     -163.175    -896.819     359.536
  C     -162.363    -897.291     358.494
  O     -161.148    -897.076     358.505
  N     -162.965    -897.972     357.456
  C     -164.242    -898.177     357.463
  N     -164.774    -898.850     356.402
  C     -165.131    -897.708     358.546
  C     -164.546    -897.047     359.547
  O     -164.813    -898.904     362.483
  O     -166.600    -898.473     364.329
  H     -160.973    -894.035     360.693
  H     -164.063    -898.675     363.087
  H     -166.192    -897.898     358.491
  H     -165.131    -896.686     360.374
  H     -161.425    -896.234     360.528
  H     -163.055    -894.155     359.607
  H     -164.923    -894.948     360.991
  H     -162.820    -895.014     363.259
  H     -164.154    -899.103     355.643
  H     -164.278    -896.833     364.180
  H     -165.764    -898.937     356.238
  H     -165.051    -895.223     364.164
  P     -165.552    -892.447     361.310
  C     -167.272    -890.650     362.099
  O     -166.282    -891.607     362.465
  O     -166.605    -893.604     360.985
  O     -165.179    -891.664     360.075
  H     -167.099    -893.424     360.158
  H     -167.657    -890.181     362.980
  H     -168.068    -891.141     361.579
  H     -166.834    -889.909     361.463

 6  7  8  9  10  11  12  13  14  15  16  26  30  31  32  33  35 0
 6-311+G(2d,p)
 ****
 37  38 0
 6-311+G(2d,p)
 ****
 1  2  3  4  5  17  18  19  20  21  22  23  24  25 0
 3-21G
 ****
 27  28  29  34  36  39  40  41  42  43  44  45  46 0
 3-21G
 ****


