%nproc=1
%NoSave
%Mem=1900MB
#P OB98/GEN NMR

erre ene a

0 1
  C      -33.417     453.163    -153.548
  O      -34.265     454.178    -154.053
  P      -35.575     453.750    -154.864
  C      -34.204     453.663    -157.075
  O      -35.093     452.991    -156.197
  C      -34.711     453.584    -158.516
  O      -34.603     452.203    -158.991
  C      -36.178     454.011    -158.689
  O      -36.297     454.634    -159.975
  C      -36.912     452.678    -158.693
  O      -38.205     452.756    -159.277
  C      -35.905     451.827    -159.482
  N      -36.142     450.389    -159.335
  C      -36.754     449.734    -160.399
  O      -37.102     450.280    -161.435
  N      -37.016     448.393    -160.200
  C      -36.815     447.699    -159.038
  O      -37.183     446.538    -158.893
  C      -36.167     448.447    -157.951
  C      -35.863     449.734    -158.141
  O      -36.151     455.144    -155.408
  O      -36.588     453.004    -154.063
  H      -38.705     451.972    -158.979
  H      -36.888     455.445    -154.842
  H      -37.449     447.896    -160.962
  H      -35.983     447.919    -157.024
  H      -35.411     450.321    -157.350
  H      -35.933     452.092    -160.547
  H      -37.019     452.317    -157.669
  H      -36.531     454.683    -157.903
  H      -34.059     454.193    -159.153
  H      -33.220     453.194    -157.011
  H      -34.095     454.708    -156.767
  P      -37.317     455.871    -160.120
  C      -39.013     454.430    -161.494
  O      -38.771     455.239    -160.368
  O      -36.892     456.434    -161.560
  O      -37.201     456.879    -159.022
  H      -36.744     455.732    -162.211
  H      -38.136     453.832    -161.755
  H      -39.284     455.056    -162.344
  H      -39.841     453.753    -161.271
  H      -32.592     453.610    -153.034
  H      -33.052     452.567    -154.358
  H      -33.966     452.544    -152.870

 3  4  5  6  7  8  9  10  11  12  13  23  28  29  30  31  32 0
 6-311+G(2d,p)
 ****
 33  34 0
 6-311+G(2d,p)
 ****
 1  2  14  15  16  17  18  19  20  21  22  24  25  26 0
 3-21G
 ****
 27  35  36  37  38  39  40  41  42  43  44  45 0
 3-21G
 ****


