%nproc=1
%NoSave
%Mem=1900MB
#P OB98/GEN NMR

erre ene a

0 1
  C      -97.557     546.085     513.739
  O      -98.542     545.810     512.767
  H      -97.984     545.918     514.726
  H      -97.222     547.124     513.673
  H      -96.694     545.412     513.618
  P      -98.177     546.039     511.222
  C      -98.772     543.620     510.525
  O      -99.074     545.013     510.372
  C      -99.999     542.770     510.173
  O     -100.937     542.868     511.263
  C     -100.698     543.266     508.887
  O     -100.883     542.240     507.914
  C     -101.946     543.969     509.422
  O     -103.032     544.004     508.522
  C     -102.228     543.227     510.737
  N     -102.990     544.004     511.711
  C     -104.324     543.683     511.866
  O     -104.926     542.778     511.278
  N     -105.029     544.455     512.776
  C     -104.504     545.481     513.515
  O     -105.171     546.140     514.310
  C     -103.084     545.787     513.279
  C     -102.405     545.047     512.401
  O      -96.726     546.025     510.883
  O      -98.840     547.455     510.878
  H     -102.682     544.286     507.651
  H      -98.154     548.149     510.856
  H     -105.993     544.228     512.911
  H     -102.648     546.604     513.829
  H     -101.352     545.244     512.198
  H     -102.792     542.300     510.537
  H     -101.677     545.013     509.655
  H     -100.075     543.993     508.364
  H      -99.689     541.725     510.085
  H      -98.487     543.450     511.578
  H      -97.926     543.350     509.884
  P     -101.374     542.475     506.419
  C      -99.086     542.107     505.193
  O     -100.413     541.646     505.439
  O     -101.664     543.888     506.065
  O     -102.766     541.661     506.359
  H     -103.352     542.149     505.731
  H      -98.594     541.435     504.521
  H      -98.546     542.148     506.116
  H      -99.123     543.084     504.758

 6  7  8  9  10  11  12  13  14  15  16  26  31  32  33  34  35 0
 6-311+G(2d,p)
 ****
 36  37 0
 6-311+G(2d,p)
 ****
 1  2  3  4  5  17  18  19  20  21  22  23  24  25 0
 3-21G
 ****
 27  28  29  30  38  39  40  41  42  43  44  45 0
 3-21G
 ****


