%nproc=1
%NoSave
%Mem=1900MB
#P OB98/GEN NMR

erre ene a

0 1
  C     -542.239     342.422    -302.653
  O     -542.094     343.784    -303.022
  H     -543.292     342.153    -302.721
  H     -541.903     342.276    -301.629
  H     -541.670     341.778    -303.329
  P     -540.626     344.428    -303.002
  C     -540.195     345.955    -300.950
  O     -540.253     344.614    -301.449
  C     -541.444     346.255    -300.118
  O     -541.615     345.256    -299.090
  C     -541.401     347.615    -299.411
  O     -541.768     348.651    -300.310
  C     -542.428     347.383    -298.311
  O     -543.759     347.472    -298.865
  C     -542.117     345.916    -297.900
  N     -541.249     346.422    -292.927
  C     -542.378     346.733    -293.666
  N     -543.403     347.269    -292.983
  N     -542.484     346.515    -294.949
  C     -541.350     346.041    -295.510
  C     -540.156     345.719    -294.890
  C     -540.081     345.905    -293.447
  O     -539.095     345.639    -292.757
  N     -539.198     345.321    -295.788
  C     -539.841     345.343    -296.954
  N     -541.129     345.809    -296.838
  O     -540.428     345.657    -303.832
  O     -539.672     343.221    -303.463
  H     -543.907     348.404    -299.095
  H     -539.516     343.241    -304.423
  H     -541.218     346.628    -291.927
  H     -539.386     345.064    -297.913
  H     -543.023     345.379    -297.574
  H     -542.356     348.112    -297.512
  H     -543.296     347.695    -292.074
  H     -540.423     347.791    -298.943
  H     -544.241     347.533    -293.518
  H     -542.329     346.181    -300.778
  H     -540.143     346.625    -301.829
  H     -539.293     346.099    -300.341
  P     -541.299     350.177    -300.056
  C     -543.355     351.683    -299.534
  O     -542.386     350.751    -299.032
  O     -541.110     350.992    -301.295
  O     -539.981     350.038    -299.141
  H     -539.158     349.968    -299.678
  H     -544.011     351.977    -298.741
  H     -543.923     351.221    -300.314
  H     -542.853     352.545    -299.921

 6  7  8  9  10  11  12  13  14  15  26  29  33  34 0
 6-311+G(2d,p)
 ****
 36  38  39  40  41 0
 6-311+G(2d,p)
 ****
 1  2  3  4  5  16  17  18  19  20  21  22  23  24  25 0
 3-21G
 ****
 27  28  30  31  32  35  37  42  43  44  45  46  47 0
 3-21G
 ****
 48  49 0
 3-21G
 ****


