%nproc=1
%NoSave
%Mem=1900MB
#P OB98/GEN NMR

erre ene a

0 1
  C     -137.902     -31.505      79.836
  O     -137.243     -30.325      80.290
  P     -136.660     -30.106      81.761
  C     -138.002     -27.904      82.290
  O     -137.722     -29.259      82.610
  C     -137.565     -26.963      83.426
  O     -138.559     -27.030      84.494
  C     -136.218     -27.370      84.038
  O     -135.358     -26.263      84.315
  C     -136.626     -28.241      85.218
  O     -135.609     -28.381      86.198
  C     -137.918     -27.564      85.678
  N     -140.818     -28.341      89.812
  C     -139.931     -27.317      89.546
  N     -139.779     -26.379      90.510
  N     -139.238     -27.225      88.441
  C     -139.426     -28.263      87.597
  C     -140.268     -29.349      87.754
  C     -141.065     -29.416      88.959
  O     -141.880     -30.288      89.239
  N     -140.192     -30.196      86.679
  C     -139.301     -29.645      85.882
  N     -138.808     -28.459      86.393
  O     -135.233     -29.669      81.838
  O     -136.752     -31.573      82.430
  H     -135.856     -29.123      86.779
  H     -136.003     -31.639      83.054
  H     -141.344     -28.348      90.673
  H     -138.984     -30.045      84.923
  H     -137.727     -26.729      86.357
  H     -136.839     -29.249      84.828
  H     -140.184     -26.453      91.429
  H     -135.634     -27.971      83.333
  H     -138.970     -25.761      90.404
  H     -137.544     -25.934      83.046
  H     -139.089     -27.842      82.152
  H     -137.533     -27.623      81.344
  P     -134.515     -25.375      83.293
  C     -132.370     -26.669      82.741
  O     -133.688     -26.350      82.326
  O     -133.370     -24.691      84.181
  O     -135.307     -24.322      82.578
  H     -133.468     -23.717      84.155
  H     -131.838     -27.106      81.891
  H     -132.410     -27.406      83.549
  H     -131.838     -25.775      83.074
  H     -138.189     -31.382      78.813
  H     -138.773     -31.679      80.432
  H     -137.238     -32.340      79.922

 3  4  5  6  7  8  9  10  11  12  23  26  30  31 0
 6-311+G(2d,p)
 ****
 33  35  36  37  38 0
 6-311+G(2d,p)
 ****
 1  2  13  14  15  16  17  18  19  20  21  22  24  25 0
 3-21G
 ****
 27  28  29  32  34  39  40  41  42  43  44  45  46  47  48  49 0
 3-21G
 ****


