%nproc=1
%NoSave
%Mem=1900MB
#P OB98/GEN NMR

erre ene a

0 1
  C     -225.419     -98.219     290.764
  O     -225.489     -97.833     289.387
  P     -224.163     -98.053     288.505
  C     -223.131     -95.699     288.178
  O     -223.095     -96.917     288.907
  C     -221.749     -95.021     288.151
  O     -221.365     -94.575     289.484
  C     -220.625     -95.937     287.648
  O     -219.679     -95.121     286.946
  C     -219.985     -96.431     288.934
  O     -218.667     -96.926     288.707
  C     -220.085     -95.170     289.789
  N     -216.814     -95.745     293.673
  C     -216.628     -95.458     292.367
  N     -217.553     -95.340     291.388
  C     -218.787     -95.518     291.888
  C     -219.136     -95.823     293.196
  C     -218.082     -95.940     294.116
  N     -218.270     -96.260     295.443
  N     -220.510     -95.972     293.313
  C     -220.974     -95.763     292.093
  N     -219.978     -95.457     291.209
  O     -224.628     -97.625     287.033
  O     -223.643     -99.454     288.531
  H     -218.123     -96.192     288.348
  H     -224.709     -98.419     286.469
  H     -215.590     -95.302     292.065
  H     -222.012     -95.833     291.800
  H     -219.300     -94.436     289.545
  H     -220.589     -97.241     289.364
  H     -220.960     -96.756     287.004
  H     -221.812     -94.132     287.510
  H     -223.853     -95.012     288.630
  H     -217.458     -96.353     296.033
  H     -219.204     -96.456     295.775
  H     -223.494     -95.894     287.164
  P     -219.718     -95.193     285.344
  C     -217.547     -96.612     285.317
  O     -218.904     -96.510     284.935
  O     -218.759     -93.988     284.888
  O     -221.090     -95.063     284.757
  H     -219.004     -93.683     283.996
  H     -217.344     -97.641     285.638
  H     -217.295     -95.933     286.136
  H     -216.913     -96.380     284.451
  H     -226.358     -98.023     291.237
  H     -224.650     -97.659     291.253
  H     -225.197     -99.264     290.831

 3  4  5  6  7  8  9  10  11  12  22  25  29  30  31  32 0
 6-311+G(2d,p)
 ****
 33  36  37 0
 6-311+G(2d,p)
 ****
 1  2  13  14  15  16  17  18  19  20  21  23  24  26 0
 3-21G
 ****
 27  28  34  35  38  39  40  41  42  43  44  45  46  47  48 0
 3-21G
 ****


