%nproc=1
%NoSave
%Mem=1900MB
#P OB98/GEN NMR

erre ene a

0 1
  C      382.658    -393.981    -525.752
  O      383.445    -393.771    -526.913
  P      384.838    -394.566    -527.005
  C      383.434    -396.642    -527.744
  O      384.471    -396.124    -526.925
  C      383.836    -398.021    -528.270
  O      384.924    -397.896    -529.219
  C      384.317    -398.987    -527.196
  O      383.219    -399.592    -526.544
  C      385.156    -399.965    -528.019
  O      384.322    -400.937    -528.669
  C      385.819    -399.032    -529.046
  N      390.612    -398.518    -530.563
  C      389.563    -399.200    -531.146
  N      389.816    -399.789    -532.337
  N      388.369    -399.290    -530.625
  C      388.261    -398.661    -529.428
  C      389.230    -397.968    -528.736
  C      390.530    -397.835    -529.359
  O      391.462    -397.160    -528.926
  N      388.758    -397.489    -527.543
  C      387.491    -397.864    -527.533
  N      387.137    -398.559    -528.658
  O      385.524    -394.255    -525.590
  O      385.707    -394.198    -528.159
  H      383.624    -400.479    -529.175
  H      386.178    -393.532    -525.680
  H      391.504    -398.470    -531.018
  H      386.792    -397.643    -526.742
  H      385.926    -399.509    -530.026
  H      385.864    -400.523    -527.398
  H      390.722    -399.783    -532.789
  H      384.962    -398.468    -526.472
  H      389.063    -400.298    -532.781
  H      382.977    -398.439    -528.808
  H      383.267    -395.970    -528.586
  H      382.514    -396.710    -527.157
  P      383.521    -400.488    -525.249
  C      382.438    -399.072    -523.358
  O      383.628    -399.488    -523.997
  O      385.033    -400.969    -525.477
  O      382.601    -401.645    -525.060
  H      385.144    -401.878    -525.136
  H      382.653    -398.873    -522.305
  H      381.652    -399.833    -523.421
  H      382.081    -398.149    -523.824
  H      381.764    -393.397    -525.817
  H      383.214    -393.687    -524.886
  H      382.403    -395.017    -525.677

 3  4  5  6  7  8  9  10  11  12  23  26  30  31 0
 6-311+G(2d,p)
 ****
 33  35  36  37  38 0
 6-311+G(2d,p)
 ****
 1  2  13  14  15  16  17  18  19  20  21  22  24  25 0
 3-21G
 ****
 27  28  29  32  34  39  40  41  42  43  44  45  46  47  48  49 0
 3-21G
 ****


