%nproc=1
%NoSave
%Mem=1900MB
#P OB98/GEN NMR

erre ene a

0 1
  C     -183.751     318.982     261.090
  O     -183.456     319.643     262.304
  H     -184.621     319.448     260.610
  H     -182.893     319.072     260.420
  H     -183.948     317.922     261.272
  P     -184.616     319.635     263.416
  C     -185.978     321.667     262.564
  O     -185.928     320.258     262.721
  C     -187.316     322.083     261.949
  O     -188.373     321.711     262.873
  C     -187.436     323.592     261.666
  O     -187.888     323.817     260.324
  C     -188.519     324.065     262.626
  O     -189.320     325.106     262.086
  C     -189.317     322.791     262.882
  N     -193.552     324.504     265.143
  C     -193.268     324.265     263.842
  N     -192.157     323.707     263.314
  C     -191.288     323.365     264.290
  C     -191.448     323.531     265.654
  C     -192.635     324.143     266.076
  N     -192.903     324.441     267.397
  N     -190.338     323.065     266.337
  C     -189.504     322.667     265.387
  N     -190.030     322.844     264.135
  O     -184.150     320.784     264.435
  O     -184.804     318.329     264.109
  H     -190.123     325.163     262.637
  H     -184.006     320.379     265.312
  H     -194.035     324.557     263.130
  H     -188.502     322.286     265.555
  H     -190.048     322.599     262.081
  H     -188.046     324.424     263.544
  H     -186.498     324.127     261.831
  H     -187.471     321.505     261.028
  H     -185.163     321.997     261.898
  H     -193.722     324.993     267.601
  H     -192.174     324.288     268.078
  H     -185.841     322.138     263.544
  P     -186.761     324.274     259.267
  C     -187.250     326.837     259.242
  O     -186.340     325.792     259.609
  O     -187.576     324.397     257.895
  O     -185.623     323.315     259.145
  H     -187.166     323.829     257.212
  H     -186.841     327.783     259.529
  H     -188.185     326.687     259.740
  H     -187.403     326.821     258.183

 6  7  8  9  10  11  12  13  14  15  25  28  32  33  34  35 0
 6-311+G(2d,p)
 ****
 36  39  40 0
 6-311+G(2d,p)
 ****
 1  2  3  4  5  16  17  18  19  20  21  22  23  24 0
 3-21G
 ****
 26  27  29  30  31  37  38  41  42  43  44  45  46  47  48 0
 3-21G
 ****


