%nproc=1
%NoSave
%Mem=1900MB
#P OB98/GEN NMR

erre ene a

0 1
  C      344.926      34.851     671.601
  O      346.120      35.486     671.119
  P      346.400      35.705     669.551
  C      345.156      37.934     669.152
  O      345.167      36.521     668.925
  C      345.126      38.720     667.846
  O      343.834      38.590     667.198
  C      345.358      40.219     667.997
  O      346.742      40.490     668.159
  C      344.750      40.758     666.711
  O      345.668      40.616     665.619
  C      343.541      39.828     666.521
  N      339.355      42.483     665.252
  C      340.400      42.036     664.515
  N      341.484      41.340     664.927
  C      341.405      41.086     666.251
  C      340.402      41.471     667.124
  C      339.337      42.206     666.577
  N      338.280      42.671     667.331
  N      340.680      41.050     668.410
  C      341.826      40.398     668.300
  N      342.297      40.389     667.022
  O      346.747      34.455     668.807
  O      347.608      36.755     669.501
  H      346.507      41.034     665.880
  H      348.122      36.622     668.677
  H      340.363      42.270     663.460
  H      342.341      39.918     669.121
  H      343.386      39.576     665.466
  H      344.483      41.819     666.778
  H      344.797      40.601     668.860
  H      345.871      38.284     667.166
  H      346.065      38.194     669.721
  H      337.568      43.221     666.870
  H      338.278      42.515     668.327
  H      344.276      38.178     669.763
  P      347.234      41.484     669.317
  C      348.166      39.736     670.952
  O      347.142      40.681     670.704
  O      346.610      42.837     669.316
  O      348.822      41.578     669.083
  H      349.135      42.449     669.383
  H      347.946      38.814     670.405
  H      348.189      39.516     672.022
  H      349.141      40.116     670.645
  H      344.950      34.812     672.670
  H      344.867      33.857     671.209
  H      344.071      35.411     671.284

 3  4  5  6  7  8  9  10  11  12  22  25  29  30  31  32 0
 6-311+G(2d,p)
 ****
 33  36  37 0
 6-311+G(2d,p)
 ****
 1  2  13  14  15  16  17  18  19  20  21  23  24  26 0
 3-21G
 ****
 27  28  34  35  38  39  40  41  42  43  44  45  46  47  48 0
 3-21G
 ****


