%nproc=1
%NoSave
%Mem=1900MB
#P OB98/GEN NMR

erre ene a

0 1
  C     -165.637    -195.481    -131.458
  O     -166.509    -195.489    -130.346
  H     -166.008    -194.797    -132.227
  H     -164.652    -195.142    -131.130
  H     -165.545    -196.490    -131.870
  P     -168.041    -195.858    -130.645
  C     -167.973    -198.056    -129.273
  O     -168.150    -197.457    -130.548
  C     -167.011    -199.234    -129.374
  O     -165.705    -198.777    -129.786
  C     -166.781    -199.985    -128.068
  O     -167.848    -200.875    -127.772
  C     -165.499    -200.736    -128.398
  O     -165.810    -201.912    -129.170
  C     -164.735    -199.723    -129.265
  N     -159.903    -199.817    -127.529
  C     -160.631    -200.724    -128.221
  N     -161.908    -200.638    -128.638
  C     -162.446    -199.458    -128.288
  C     -161.829    -198.437    -127.583
  C     -160.498    -198.651    -127.189
  N     -159.770    -197.728    -126.469
  N     -162.685    -197.369    -127.420
  C     -163.803    -197.736    -128.016
  N     -163.709    -198.993    -128.549
  O     -168.196    -195.572    -132.215
  O     -169.048    -195.097    -129.849
  H     -166.377    -202.473    -128.607
  H     -169.090    -195.222    -132.385
  H     -160.111    -201.645    -128.478
  H     -164.694    -197.125    -128.087
  H     -164.269    -200.209    -130.131
  H     -164.952    -201.063    -127.509
  H     -166.593    -199.292    -127.239
  H     -167.388    -199.913    -130.151
  H     -168.940    -198.414    -128.900
  H     -158.776    -197.853    -126.390
  H     -160.223    -196.853    -126.227
  H     -167.582    -197.303    -128.580
  P     -168.750    -200.549    -126.482
  C     -170.904    -201.473    -127.596
  O     -170.241    -200.342    -127.043
  O     -168.296    -199.063    -126.091
  O     -168.595    -201.496    -125.344
  H     -168.457    -198.907    -125.142
  H     -171.881    -201.188    -127.926
  H     -170.988    -202.236    -126.851
  H     -170.341    -201.846    -128.426

 6  7  8  9  10  11  12  13  14  15  25  28  32  33  34  35 0
 6-311+G(2d,p)
 ****
 36  39  40 0
 6-311+G(2d,p)
 ****
 1  2  3  4  5  16  17  18  19  20  21  22  23  24 0
 3-21G
 ****
 26  27  29  30  31  37  38  41  42  43  44  45  46  47  48 0
 3-21G
 ****


