%nproc=1
%NoSave
%Mem=1900MB
#P OB98/GEN NMR

erre ene a

0 1
  C      468.068     366.268    -957.782
  O      467.170     365.174    -957.858
  H      468.499     366.311    -956.779
  H      467.538     367.200    -957.979
  H      468.887     366.148    -958.503
  P      466.590     364.816    -959.309
  C      465.771     362.629    -960.443
  O      466.504     363.214    -959.374
  C      466.716     361.955    -961.429
  O      467.350     362.941    -962.280
  C      467.856     361.174    -960.767
  O      467.440     359.869    -960.369
  C      468.853     361.105    -961.927
  O      468.429     360.100    -962.866
  C      468.716     362.503    -962.542
  N      471.207     366.821    -963.460
  C      470.351     366.119    -964.270
  N      470.120     366.610    -965.496
  N      469.766     364.997    -963.910
  C      470.078     364.608    -962.653
  C      470.921     365.242    -961.751
  C      471.557     366.467    -962.167
  O      472.305     367.148    -961.474
  N      470.993     364.542    -960.564
  C      470.224     363.484    -960.757
  N      469.644     363.485    -961.998
  O      467.813     365.166    -960.293
  O      465.346     365.544    -959.705
  H      469.093     360.076    -963.587
  H      467.455     365.515    -961.131
  H      471.638     367.667    -963.799
  H      470.037     362.724    -960.015
  H      468.854     362.498    -963.626
  H      469.857     360.837    -961.587
  H      470.578     367.420    -965.875
  H      468.301     361.731    -959.937
  H      469.466     366.120    -966.110
  H      466.131     361.290    -962.078
  H      465.204     363.419    -960.967
  H      465.062     361.894    -960.032
  P      468.400     359.049    -959.383
  C      468.129     356.939    -957.888
  O      467.536     357.816    -958.839
  O      468.531     360.014    -958.106
  O      469.742     358.703    -959.957
  H      469.340     359.810    -957.614
  H      467.430     356.172    -957.625
  H      468.398     357.492    -957.012
  H      469.005     356.493    -958.311

 6  7  8  9  10  11  12  13  14  15  26  29  33  34 0
 6-311+G(2d,p)
 ****
 36  38  39  40  41 0
 6-311+G(2d,p)
 ****
 1  2  3  4  5  16  17  18  19  20  21  22  23  24  25 0
 3-21G
 ****
 27  28  30  31  32  35  37  42  43  44  45  46  47 0
 3-21G
 ****
 48  49 0
 3-21G
 ****


