%nproc=1
%NoSave
%Mem=1900MB
#P OB98/GEN NMR

erre ene a

0 1
  C     -282.052     338.651    -122.754
  O     -281.068     338.431    -123.746
  H     -281.582     339.135    -121.892
  H     -282.480     337.697    -122.431
  H     -282.843     339.302    -123.138
  P     -281.565     337.763    -125.120
  C     -281.960     339.876    -126.587
  O     -282.542     338.832    -125.812
  C     -282.764     340.075    -127.869
  O     -284.146     340.349    -127.534
  C     -282.308     341.258    -128.717
  O     -281.157     340.948    -129.486
  C     -283.550     341.517    -129.561
  O     -283.605     340.650    -130.700
  C     -284.689     341.177    -128.589
  N     -288.950     343.975    -128.453
  C     -288.659     342.800    -129.058
  N     -287.499     342.108    -129.027
  C     -286.589     342.746    -128.269
  C     -286.739     343.951    -127.604
  C     -287.992     344.578    -127.710
  N     -288.278     345.789    -127.128
  N     -285.561     344.305    -126.971
  C     -284.717     343.330    -127.244
  N     -285.297     342.366    -128.023
  O     -282.557     336.610    -124.617
  O     -280.480     337.228    -125.994
  H     -284.484     340.782    -131.109
  H     -282.073     335.766    -124.556
  H     -289.461     342.359    -129.641
  H     -283.687     343.280    -126.913
  H     -285.487     340.600    -129.070
  H     -283.573     342.543    -129.932
  H     -282.121     342.134    -128.079
  H     -282.731     339.143    -128.453
  H     -280.929     339.603    -126.844
  H     -281.950     340.793    -125.991
  H     -289.192     346.190    -127.263
  H     -287.535     346.300    -126.658
  P     -280.269     342.155    -130.054
  C     -279.014     342.256    -127.775
  O     -279.697     342.971    -128.795
  O     -281.357     343.143    -130.691
  O     -279.232     341.746    -131.051
  H     -281.395     343.031    -131.656
  H     -278.698     342.937    -127.013
  H     -278.159     341.767    -128.193
  H     -279.671     341.526    -127.350

 6  7  8  9  10  11  12  13  14  15  25  28  32  33  34  35 0
 6-311+G(2d,p)
 ****
 36  37  40 0
 6-311+G(2d,p)
 ****
 1  2  3  4  5  16  17  18  19  20  21  22  23  24 0
 3-21G
 ****
 26  27  29  30  31  38  39 41  42  43  44  45  46  47  48 0
 3-21G
 ****


