%nproc=1
%NoSave
%Mem=1900MB
#P OB98/GEN NMR

erre ene a

0 1
  C       -9.727     972.713     583.929
  O      -11.126     972.913     583.857
  H       -9.236     973.659     583.712
  H       -9.425     971.990     583.185
  H       -9.434     972.389     584.923
  P      -12.107     971.722     584.298
  C      -13.617     973.575     585.259
  O      -13.560     972.357     584.518
  C      -14.960     974.270     584.995
  O      -16.065     973.398     585.386
  C      -15.144     975.572     585.780
  O      -14.391     976.640     585.240
  C      -16.672     975.731     585.689
  O      -17.033     976.333     584.435
  C      -17.156     974.266     585.771
  N      -17.656     973.917     587.096
  C      -18.763     974.648     587.544
  O      -19.334     975.505     586.857
  N      -19.180     974.367     588.819
  C      -18.521     973.573     589.724
  O      -18.778     973.551     590.904
  C      -17.376     972.817     589.190
  C      -16.995     973.034     587.925
  O      -11.605     970.861     585.416
  O      -12.288     970.874     582.952
  H      -11.713     970.080     582.989
  H      -18.000     976.231     584.352
  H      -19.968     974.918     589.161
  H      -16.866     972.107     589.845
  H      -16.147     972.473     587.506
  H      -17.959     974.099     585.042
  H      -17.039     976.359     586.479
  H      -14.878     975.397     586.834
  H      -15.047     974.463     583.895
  H      -12.802     974.221     584.923
  H      -13.501     973.345     586.331
  P      -13.499     977.558     586.186
  C      -12.074     978.138     584.122
  O      -12.737     978.644     585.263
  O      -12.619     976.830     587.152
  O      -14.557     978.447     586.968
  H      -14.363     978.390     587.942
  H      -11.610     978.944     583.593
  H      -12.783     977.653     583.483
  H      -11.328     977.434     584.426

 6  7  8  9  10  11  12  13  14  15  16  27  31  32  33  34  35 0
 6-311+G(2d,p)
 ****
 36  37 0
 6-311+G(2d,p)
 ****
 1  2  3  4  5  17  18  19  20  21  22  23  24  25 0
 3-21G
 ****
 26  28  29  30  38  39  40  41  42  43  44  45 0
 3-21G
 ****


