%nproc=1
%NoSave
%Mem=1900MB
#P OB98/GEN NMR

erre ene a

0 1
  C     -899.150     547.317     148.583
  O     -898.170     547.062     147.585
  H     -900.000     547.831     148.113
  H     -898.740     547.963     149.358
  H     -899.510     546.382     149.022
  P     -896.890     546.184     147.975
  C     -895.320     548.236     147.965
  O     -895.860     547.157     148.717
  C     -893.930     548.590     148.474
  O     -894.010     549.152     149.800
  C     -892.990     547.389     148.606
  O     -892.510     546.980     147.335
  C     -891.940     547.929     149.548
  O     -890.980     548.739     148.838
  C     -892.790     548.801     150.506
  N     -893.090     548.113     151.769
  C     -892.090     548.146     152.736
  O     -891.000     548.665     152.555
  N     -892.380     547.509     153.910
  C     -893.510     546.770     154.184
  O     -893.680     546.155     155.216
  C     -894.530     546.766     153.117
  C     -894.270     547.435     151.981
  O     -896.300     545.376     146.866
  O     -897.420     545.245     149.164
  H     -890.270     548.946     149.477
  H     -897.560     544.340     148.825
  H     -891.660     547.503     154.618
  H     -895.440     546.210     153.284
  H     -895.000     547.424     151.178
  H     -892.280     549.735     150.730
  H     -891.380     547.132     150.045
  H     -893.520     546.556     149.104
  H     -893.500     549.344     147.811
  H     -895.980     549.109     148.069
  H     -895.290     547.943     146.907
  P     -892.370     545.423     146.991
  C     -889.970     544.871     147.769
  O     -891.370     544.782     148.068
  O     -892.060     545.097     145.566
  O     -893.790     544.803     147.418
  H     -894.220     544.409     146.641
  H     -889.408     544.412     148.555
  H     -889.688     545.900     147.683
  H     -889.770     544.368     146.846

 6  7  8  9  10  11  12  13  14  15  16  26  31  32  33  34  35 0
 6-311+G(2d,p)
 ****
 36  37 0
 6-311+G(2d,p)
 ****
 1  2  3  4  5  17  18  19  20  21  22  23  24  25 0
 3-21G
 ****
 27  28  29  30  38  39  40  41  42  43  44  45 0
 3-21G
 ****


