%nproc=1
%NoSave
%Mem=1900MB
#P OB98/GEN NMR

erre ene a

0 1
  C     -233.215    -110.455    -607.115
  O     -232.614    -109.159    -607.167
  P     -232.033    -108.528    -608.522
  C     -233.563    -106.461    -608.474
  O     -233.170    -107.625    -609.202
  C     -234.677    -105.675    -609.210
  O     -235.883    -106.482    -609.305
  C     -235.087    -104.375    -608.526
  O     -234.154    -103.350    -608.817
  C     -236.477    -104.159    -609.141
  O     -236.385    -103.579    -610.442
  C     -237.019    -105.599    -609.209
  N     -241.299    -108.047    -607.844
  C     -240.698    -107.892    -609.038
  N     -239.547    -107.217    -609.320
  C     -239.019    -106.686    -608.197
  C     -239.538    -106.753    -606.921
  C     -240.734    -107.465    -606.746
  N     -241.348    -107.607    -605.528
  N     -238.711    -106.061    -606.034
  C     -237.727    -105.612    -606.780
  N     -237.866    -105.964    -608.104
  O     -231.417    -109.530    -609.455
  O     -230.938    -107.457    -608.044
  H     -237.291    -103.393    -610.739
  H     -230.256    -107.353    -608.725
  H     -241.183    -108.375    -609.878
  H     -236.896    -105.017    -606.400
  H     -237.607    -105.747    -610.131
  H     -237.103    -103.500    -608.529
  H     -235.188    -104.535    -607.443
  H     -234.329    -105.492    -610.232
  H     -232.685    -105.806    -608.358
  H     -242.231    -108.106    -605.491
  H     -240.969    -107.140    -604.711
  H     -233.917    -106.767    -607.482
  P     -232.749    -103.297    -608.025
  C     -231.478    -103.643    -610.236
  O     -231.681    -104.105    -608.927
  O     -232.804    -103.711    -606.583
  O     -232.273    -101.793    -608.183
  H     -231.737    -101.542    -607.413
  H     -232.296    -103.983    -610.880
  H     -230.527    -104.018    -610.614
  H     -231.461    -102.541    -610.257
  H     -233.527    -110.663    -606.113
  H     -232.504    -111.191    -607.427
  H     -234.064    -110.481    -607.766

 3  4  5  6  7  8  9  10  11  12  22  25  29  30  31  32 0
 6-311+G(2d,p)
 ****
 33  36  37 0
 6-311+G(2d,p)
 ****
 1  2  13  14  15  16  17  18  19  20  21  23  24  26 0
 3-21G
 ****
 27  28  34  35  38  39  40  41  42  43  44  45  46  47  48 0
 3-21G
 ****


