%nproc=1
%NoSave
%Mem=1900MB
#P OB98/GEN NMR

erre ene a

0 1
  C     -173.328     246.957    -133.643
  O     -173.840     246.068    -134.618
  P     -173.506     244.505    -134.563
  C     -171.819     243.654    -136.390
  O     -172.035     244.284    -135.145
  C     -171.611     244.727    -137.467
  O     -170.595     245.662    -137.048
  C     -171.171     244.116    -138.793
  O     -172.291     243.899    -139.638
  C     -170.204     245.155    -139.332
  O     -170.919     246.234    -139.967
  C     -169.526     245.650    -138.029
  N     -168.406     244.858    -137.481
  C     -167.434     245.485    -136.714
  O     -167.451     246.681    -136.426
  N     -166.396     244.683    -136.295
  C     -166.278     243.344    -136.534
  O     -165.250     242.700    -136.373
  C     -167.463     242.699    -137.113
  C     -168.447     243.471    -137.575
  O     -174.449     243.894    -135.704
  O     -173.723     243.847    -133.241
  H     -171.626     246.505    -139.354
  H     -175.255     243.512    -135.310
  H     -165.614     245.158    -135.858
  H     -167.471     241.619    -137.191
  H     -169.317     243.018    -138.035
  H     -169.170     246.684    -138.146
  H     -169.554     244.731    -140.098
  H     -170.620     243.183    -138.620
  H     -172.549     245.285    -137.596
  H     -172.676     243.019    -136.645
  H     -170.940     242.999    -136.333
  P     -172.182     242.846    -140.841
  C     -171.886     243.835    -143.189
  O     -171.266     243.558    -141.946
  O     -173.480     242.295    -141.340
  O     -171.242     241.695    -140.232
  H     -171.792     240.954    -139.903
  H     -171.226     244.475    -143.776
  H     -172.839     244.352    -143.036
  H     -172.058     242.901    -143.734
  H     -173.664     247.951    -133.855
  H     -172.259     246.930    -133.662
  H     -173.675     246.662    -132.675

 3  4  5  6  7  8  9  10  11  12  13  23  28  29  30  31  32 0
 6-311+G(2d,p)
 ****
 33  34 0
 6-311+G(2d,p)
 ****
 1  2  14  15  16  17  18  19  20  21  22  24  25  26  27 0
 3-21G
 ****
 35  36  37  38  39  40  41  42  43  44  45 0
 3-21G
 ****


