%nproc=1
%NoSave
%Mem=1900MB
#P OB98/GEN NMR

erre ene a

0 1
  C      -46.318    -230.991      -7.344
  O      -46.724    -230.399      -6.099
  P      -45.821    -230.632      -4.790
  C      -47.165    -232.589      -3.688
  O      -45.968    -232.160      -4.326
  C      -47.320    -234.107      -3.825
  O      -46.046    -234.765      -3.645
  C      -48.243    -234.739      -2.794
  O      -49.610    -234.520      -3.101
  C      -47.830    -236.203      -2.879
  O      -48.489    -236.861      -3.974
  C      -46.315    -236.090      -3.142
  N      -45.516    -236.386      -1.956
  C      -45.413    -237.727      -1.598
  O      -46.003    -238.630      -2.190
  N      -44.636    -237.995      -0.503
  C      -44.016    -237.070       0.288
  O      -43.347    -237.371       1.269
  C      -44.229    -235.664      -0.094
  C      -44.961    -235.393      -1.176
  O      -46.664    -229.859      -3.663
  O      -44.427    -230.100      -4.860
  H      -48.139    -237.775      -4.003
  H      -46.063    -229.546      -2.963
  H      -44.524    -238.964      -0.244
  H      -43.775    -234.898       0.521
  H      -45.125    -234.361      -1.473
  H      -46.020    -236.780      -3.943
  H      -48.083    -236.762      -1.972
  H      -48.004    -234.358      -1.793
  H      -47.672    -234.322      -4.842
  H      -48.021    -232.097      -4.157
  H      -47.127    -232.297      -2.633
  P      -50.360    -233.366      -2.269
  C      -51.806    -235.146      -1.011
  O      -50.881    -234.080      -0.933
  O      -51.669    -233.149      -3.166
  O      -49.525    -232.144      -2.082
  H      -51.968    -233.975      -3.585
  H      -51.652    -235.746      -1.911
  H      -52.821    -234.743      -1.009
  H      -51.675    -235.786      -0.135
  H      -47.025    -230.739      -8.106
  H      -46.275    -232.055      -7.236
  H      -45.352    -230.620      -7.617

 3  4  5  6  7  8  9  10  11  12  13  23  28  29  30  31  32 0
 6-311+G(2d,p)
 ****
 33  34 0
 6-311+G(2d,p)
 ****
 1  2  14  15  16  17  18  19  20  21  22  24  25  26 0
 3-21G
 ****
 27  35  36  37  38  39  40  41  42  43  44  45 0
 3-21G
 ****


