%nproc=1
%NoSave
%Mem=1900MB
#P OB98/GEN NMR

erre ene a

0 1
  C     -311.950      45.766      16.442
  O     -310.543      45.650      16.487
  H     -312.218      46.817      16.570
  H     -312.394      45.188      17.258
  H     -312.347      45.416      15.486
  P     -309.865      44.294      15.976
  C     -309.461      44.991      13.524
  O     -308.870      44.684      14.777
  C     -308.408      45.489      12.525
  O     -307.670      46.591      13.108
  C     -307.394      44.382      12.222
  O     -306.834      44.507      10.918
  C     -306.306      44.632      13.258
  O     -305.049      44.068      12.892
  C     -306.314      46.157      13.326
  N     -302.611      48.683      15.751
  C     -302.654      48.238      14.444
  N     -301.556      48.476      13.693
  N     -303.674      47.600      13.930
  C     -304.667      47.366      14.820
  C     -304.730      47.736      16.144
  C     -303.614      48.475      16.691
  O     -303.513      48.880      17.848
  N     -305.894      47.303      16.732
  C     -306.531      46.667      15.768
  N     -305.833      46.690      14.585
  O     -311.053      43.539      15.209
  O     -309.263      43.428      17.040
  H     -304.804      44.435      12.023
  H     -310.893      42.579      15.196
  H     -301.809      49.183      16.093
  H     -307.493      46.181      15.873
  H     -305.690      46.583      12.529
  H     -306.612      44.160      14.197
  H     -300.689      48.802      14.091
  H     -307.827      43.388      12.328
  H     -301.451      47.910      12.846
  H     -308.895      45.874      11.621
  H     -310.207      45.774      13.701
  H     -309.986      44.120      13.126
  P     -307.096      43.313       9.880
  C     -309.483      44.274       9.358
  O     -308.246      43.789       8.870
  O     -307.798      42.190      10.774
  O     -305.859      42.813       9.214
  H     -307.171      41.465      10.960
  H     -310.112      44.539       8.534
  H     -309.312      45.136       9.968
  H     -309.960      43.513       9.940

 6  7  8  9  10  11  12  13  14  15  26  29  33  34 0
 6-311+G(2d,p)
 ****
 36  38  39  40  41 0
 6-311+G(2d,p)
 ****
 1  2  3  4  5  16  17  18  19  20  21  22  23  24  25 0
 3-21G
 ****
 27  28  30  31  32  35  37  42  43  44  45  46  47 0
 3-21G
 ****
 48  49 0
 3-21G
 ****


