%nproc=1
%NoSave
%Mem=1900MB
#P OB98/GEN NMR

erre ene a

0 1
  C       -4.310     302.730     998.859
  O       -4.903     303.945     998.450
  H       -5.001     301.913     998.649
  H       -4.107     302.749     999.936
  H       -3.380     302.565     998.304
  P       -4.095     305.292     998.764
  C       -3.360     305.425     996.276
  O       -3.959     306.093     997.382
  C       -4.222     305.642     995.032
  O       -5.376     304.766     995.079
  C       -4.782     307.047     994.893
  O       -3.824     307.977     994.397
  C       -5.920     306.817     993.922
  O       -5.468     306.832     992.559
  C       -6.427     305.417     994.327
  N       -7.679     305.488     995.078
  C       -8.801     304.993     994.425
  O       -8.774     304.517     993.292
  N       -9.980     305.098     995.113
  C      -10.144     305.685     996.338
  O      -11.249     305.794     996.873
  C       -8.924     306.207     996.968
  C       -7.765     306.091     996.318
  O       -2.609     304.772     999.051
  O       -4.631     306.096     999.902
  H       -2.423     304.819    1000.010
  H       -5.151     307.738     992.392
  H      -10.807     304.739     994.660
  H       -9.021     306.677     997.931
  H       -6.848     306.473     996.756
  H       -6.599     304.798     993.433
  H       -6.678     307.588     994.021
  H       -5.193     307.388     995.856
  H       -3.625     305.375     994.146
  H       -3.298     304.353     996.483
  H       -2.349     305.818     996.129
  P       -4.015     309.522     994.778
  C       -1.750     309.871     996.081
  O       -2.532     310.124     994.920
  O       -4.556     309.392     996.282
  O       -4.919     310.245     993.841
  H       -4.240     308.580     996.706
  H       -0.801     310.355     995.984
  H       -1.603     308.817     996.189
  H       -2.258     310.251     996.943

 6  7  8  9  10  11  12  13  14  15  16  27  31  32  33  34  35 0
 6-311+G(2d,p)
 ****
 36  37 0
 6-311+G(2d,p)
 ****
 1  2  3  4  5  17  18  19  20  21  22  23  24  25 0
 3-21G
 ****
 26  28  29  30  38  39  40  41  42  43  44  45 0
 3-21G
 ****


