%nproc=1
%NoSave
%Mem=1900MB
#P OB98/GEN NMR

erre ene a

0 1
  C     -382.247     378.455    -321.331
  O     -383.337     378.445    -322.228
  H     -382.478     377.804    -320.484
  H     -382.078     379.468    -320.958
  H     -381.339     378.089    -321.821
  P     -383.118     379.176    -323.639
  C     -384.688     377.358    -324.621
  O     -384.345     378.736    -324.575
  C     -385.838     377.132    -325.610
  O     -385.495     377.679    -326.904
  C     -386.177     375.664    -325.845
  O     -387.026     375.141    -324.832
  C     -386.903     375.758    -327.181
  O     -388.242     376.249    -326.966
  C     -386.067     376.815    -327.921
  N     -384.922     373.642    -331.704
  C     -386.146     373.944    -331.139
  N     -387.226     373.301    -331.644
  N     -386.308     374.788    -330.155
  C     -385.140     375.349    -329.740
  C     -383.869     375.129    -330.228
  C     -383.707     374.194    -331.313
  O     -382.655     373.911    -331.864
  N     -382.946     375.885    -329.560
  C     -383.652     376.549    -328.655
  N     -384.991     376.249    -328.725
  O     -381.873     378.388    -324.275
  O     -382.853     380.643    -323.572
  H     -388.560     375.852    -326.128
  H     -381.324     379.023    -324.776
  H     -384.853     372.962    -332.446
  H     -383.242     377.251    -327.942
  H     -386.669     377.432    -328.588
  H     -386.990     374.793    -327.681
  H     -387.163     372.593    -332.363
  H     -385.270     375.055    -325.975
  H     -388.137     373.530    -331.270
  H     -386.707     377.677    -325.236
  H     -385.004     377.029    -323.625
  H     -383.803     376.779    -324.931
  P     -386.935     373.572    -324.516
  C     -387.723     374.051    -322.095
  O     -387.935     373.320    -323.287
  O     -385.488     373.418    -323.856
  O     -387.110     372.680    -325.704
  H     -385.169     372.497    -323.954
  H     -388.463     373.777    -321.372
  H     -387.796     375.098    -322.301
  H     -386.749     373.830    -321.710

 6  7  8  9  10  11  12  13  14  15  26  29  33  34 0
 6-311+G(2d,p)
 ****
 36  38  39  40  41 0
 6-311+G(2d,p)
 ****
 1  2  3  4  5  16  17  18  19  20  21  22  23  24  25 0
 3-21G
 ****
 27  28  30  31  32  35  37  42  43  44  45  46  47 0
 3-21G
 ****
 48  49 0
 3-21G
 ****


