%nproc=1
%NoSave
%Mem=1900MB
#P OB98/GEN NMR

erre ene a

0 1
  C       61.674     640.450     499.707
  O       62.363     640.292     498.480
  P       61.511     640.385     497.124
  C       61.180     638.125     495.850
  O       60.777     638.979     496.920
  C       62.362     637.267     496.290
  O       62.086     636.650     497.574
  C       62.662     636.113     495.340
  O       63.384     636.556     494.204
  C       63.461     635.176     496.237
  O       64.842     635.570     496.291
  C       62.782     635.386     497.610
  N       61.891     634.286     497.962
  C       62.146     633.662     499.185
  O       63.078     633.990     499.921
  N       61.319     632.627     499.511
  C       60.315     632.124     498.735
  O       59.643     631.149     499.051
  C       60.116     632.802     497.433
  C       60.897     633.827     497.116
  O       62.626     640.404     495.970
  O       60.613     641.569     497.039
  H       64.858     636.516     496.557
  H       62.337     640.983     495.243
  H       61.474     632.180     500.398
  H       59.329     632.421     496.791
  H       60.781     634.333     496.163
  H       63.539     635.482     498.394
  H       63.437     634.139     495.871
  H       61.730     635.620     495.043
  H       63.247     637.919     496.413
  H       61.472     638.756     494.994
  H       60.334     637.512     495.555
  P       63.313     635.638     492.887
  C       65.544     634.302     492.640
  O       64.259     634.385     493.212
  O       64.136     636.532     491.850
  O       61.913     635.331     492.463
  H       64.844     637.040     492.281
  H       66.009     635.285     492.548
  H       65.478     633.843     491.650
  H       66.169     633.670     493.267
  H       62.366     640.364     500.518
  H       60.925     639.691     499.796
  H       61.210     641.414     499.734

 3  4  5  6  7  8  9  10  11  12  13  23  28  29  30  31  32 0
 6-311+G(2d,p)
 ****
 33  34 0
 6-311+G(2d,p)
 ****
 1  2  14  15  16  17  18  19  20  21  22  24  25  26 0
 3-21G
 ****
 27  35  36  37  38  39  40  41  42  43  44  45 0
 3-21G
 ****


