%nproc=1
%NoSave
%Mem=1900MB
#P OB98/GEN NMR

erre ene a

0 1
  C      761.390     323.289    -239.055
  O      762.436     323.251    -240.006
  H      761.754     322.850    -238.119
  H      760.535     322.696    -239.406
  H      761.094     324.318    -238.863
  P      762.094     323.811    -241.469
  C      761.333     321.506    -242.384
  O      760.949     322.831    -242.020
  C      760.136     320.719    -242.903
  O      759.190     320.484    -241.837
  C      759.354     321.422    -244.008
  O      759.965     321.202    -245.272
  C      758.013     320.713    -243.912
  O      758.080     319.447    -244.610
  C      757.852     320.476    -242.403
  N      753.107     321.844    -241.027
  C      753.547     320.908    -241.875
  N      754.828     320.625    -242.236
  C      755.685     321.453    -241.597
  C      755.378     322.457    -240.697
  C      754.010     322.642    -240.402
  N      753.561     323.611    -239.524
  N      756.515     323.080    -240.254
  C      757.505     322.426    -240.841
  N      757.050     321.450    -241.688
  O      763.265     324.026    -242.368
  O      761.267     325.137    -241.103
  H      758.823     318.951    -244.212
  H      760.671     324.964    -240.353
  H      752.783     320.292    -242.340
  H      758.555     322.599    -240.648
  H      757.417     319.491    -242.181
  H      757.195     321.285    -244.372
  H      759.214     322.492    -243.793
  H      760.500     319.732    -243.244
  H      761.766     320.990    -241.521
  H      752.568     323.804    -239.527
  H      754.233     324.280    -239.179
  H      762.100     321.583    -243.156
  P      760.066     322.379    -246.363
  C      757.932     321.377    -247.395
  O      758.573     322.549    -246.924
  O      761.120     322.173    -247.392
  O      760.292     323.706    -245.491
  H      760.624     324.418    -246.062
  H      756.949     321.622    -247.740
  H      757.864     320.664    -246.600
  H      758.499     320.960    -248.201

 6  7  8  9  10  11  12  13  14  15  25  28  32  33  34  35 0
 6-311+G(2d,p)
 ****
 36  39  40 0
 6-311+G(2d,p)
 ****
 1  2  3  4  5  16  17  18  19  20  21  22  23  24 0
 3-21G
 ****
 26  27  29  30  31  37  38  41  42  43  44  45  46  47 0
 3-21G
 ****
 48 0
 3-21G
 ****


