%nproc=1
%NoSave
%Mem=1900MB
#P OB98/GEN NMR

erre ene a

0 1
  C     -899.263    1179.028     579.585
  O     -898.013    1179.591     579.954
  P     -897.943    1181.191     580.095
  C     -896.703    1181.654     577.854
  O     -896.663    1181.675     579.260
  C     -895.753    1182.676     577.269
  O     -896.193    1183.993     577.558
  C     -894.323    1182.592     577.814
  O     -893.613    1181.490     577.284
  C     -893.783    1183.964     577.421
  O     -893.413    1183.952     576.029
  C     -895.033    1184.865     577.639
  N     -896.143    1189.207     580.120
  C     -896.253    1188.861     578.822
  N     -895.923    1187.684     578.213
  C     -895.453    1186.838     579.122
  C     -895.253    1187.040     580.488
  C     -895.623    1188.285     580.983
  N     -895.543    1188.641     582.307
  N     -894.723    1185.914     581.073
  C     -894.583    1185.047     580.111
  N     -895.013    1185.537     578.923
  O     -897.503    1181.387     581.625
  O     -899.223    1181.927     579.772
  H     -892.743    1183.232     575.911
  H     -897.903    1182.200     582.005
  H     -896.673    1189.632     578.146
  H     -894.193    1184.046     580.230
  H     -895.113    1185.616     576.852
  H     -892.893    1184.260     578.004
  H     -894.343    1182.510     578.922
  H     -895.723    1182.538     576.159
  H     -897.733    1181.888     577.507
  H     -895.703    1189.609     582.559
  H     -895.053    1188.007     582.933
  H     -896.483    1180.627     577.499
  P     -892.983    1180.447     578.308
  C     -890.533    1180.569     577.525
  O     -891.743    1179.825     577.513
  O     -894.063    1179.254     578.309
  O     -892.643    1181.027     579.656
  H     -894.283    1179.004     577.373
  H     -889.763    1180.020     576.976
  H     -890.193    1180.716     578.554
  H     -890.673    1181.527     577.021
  H     -899.172    1177.963     579.527
  H     -899.561    1179.413     578.632
  H     -900.000    1179.283     580.318

 3  4  5  6  7  8  9  10  11  12  22  25  29  30  31  32 0
 6-311+G(2d,p)
 ****
 33  36  37 0
 6-311+G(2d,p)
 ****
 1  2  13  14  15  16  17  18  19  20  21  23  24  26 0
 3-21G
 ****
 27  28  34  35  38  39  40  41  42  43  44  45  46  47  48 0
 3-21G
 ****


