%nproc=1
%NoSave
%Mem=1900MB
#P OB98/GEN NMR

erre ene a

0 1
  C       90.114    -546.367    -551.514
  O       89.904    -547.326    -550.500
  H       90.825    -546.772    -552.248
  H       90.532    -545.451    -551.094
  H       89.174    -546.144    -552.025
  P       88.972    -546.873    -549.272
  C       88.212    -549.239    -548.467
  O       89.061    -548.119    -548.256
  C       88.696    -550.412    -547.620
  O       89.927    -550.950    -548.138
  C       88.985    -550.057    -546.167
  O       87.808    -549.954    -545.375
  C       89.849    -551.239    -545.752
  O       89.001    -552.392    -545.541
  C       90.723    -551.415    -547.012
  N       91.986    -550.686    -546.933
  C       93.131    -551.440    -546.623
  O       93.049    -552.649    -546.421
  N       94.336    -550.786    -546.515
  C       94.406    -549.506    -546.718
  N       95.628    -548.910    -546.576
  C       93.230    -548.687    -547.063
  C       92.068    -549.322    -547.157
  O       87.484    -547.008    -549.858
  O       89.279    -545.541    -548.671
  H       88.392    -552.169    -544.815
  H       86.825    -546.874    -549.132
  H       93.346    -547.609    -547.211
  H       91.168    -548.788    -547.406
  H       90.944    -552.474    -547.190
  H       90.393    -551.072    -544.829
  H       89.587    -549.141    -546.086
  H       87.940    -551.217    -547.685
  H       96.398    -549.498    -546.284
  H       88.245    -549.501    -549.529
  H       95.750    -547.903    -546.545
  H       87.182    -548.993    -548.196
  P       87.785    -548.832    -544.214
  C       85.247    -549.148    -543.757
  O       86.568    -549.195    -543.239
  O       87.259    -547.518    -544.986
  O       89.101    -548.596    -543.540
  H       87.721    -546.727    -544.683
  H       84.553    -549.415    -542.988
  H       85.159    -549.836    -544.572
  H       85.034    -548.158    -544.102

 6  7  8  9  10  11  12  13  14  15  16  26  30  31  32  33  35 0
 6-311+G(2d,p)
 ****
 37  38 0
 6-311+G(2d,p)
 ****
 1  2  3  4  5  17  18  19  20  21  22  23  24  25 0
 3-21G
 ****
 27  28  29  34  36  39  40  41  42  43  44  45  46 0
 3-21G
 ****


