%nproc=1
%NoSave
%Mem=1900MB
#P OB98/GEN NMR

erre ene a

0 1
  C      386.124     916.557    -198.324
  O      385.375     916.138    -199.443
  P      384.348     917.125    -200.170
  C      382.197     915.835    -199.347
  O      382.980     916.352    -200.417
  C      380.973     915.111    -199.919
  O      379.995     916.081    -200.386
  C      381.354     914.227    -201.084
  O      381.574     912.881    -200.632
  C      380.156     914.353    -202.003
  O      379.079     913.486    -201.565
  C      379.763     915.843    -201.799
  N      380.510     916.865    -202.575
  C      379.998     917.308    -203.786
  O      378.930     916.933    -204.261
  N      380.789     918.228    -204.453
  C      381.974     918.732    -204.000
  O      382.768     919.333    -204.716
  C      382.308     918.423    -202.612
  C      381.595     917.502    -201.976
  O      384.965     917.276    -201.634
  O      384.161     918.448    -199.506
  H      378.347     913.607    -202.180
  H      385.474     918.090    -201.722
  H      380.486     918.450    -205.400
  H      383.162     918.921    -202.176
  H      381.843     917.233    -200.956
  H      378.693     915.990    -201.993
  H      380.408     914.039    -203.009
  H      382.231     914.618    -201.595
  H      380.503     914.533    -199.105
  H      381.888     916.677    -198.702
  H      382.793     915.172    -198.729
  P      383.072     912.315    -200.589
  C      382.172     910.110    -201.557
  O      382.911     910.717    -200.516
  O      383.962     912.922    -199.546
  O      383.619     912.597    -202.066
  H      384.152     913.410    -202.071
  H      382.280     909.024    -201.478
  H      382.539     910.459    -202.524
  H      381.110     910.362    -201.446
  H      386.746     915.753    -197.990
  H      385.459     916.844    -197.537
  H      386.735     917.392    -198.596

 3  4  5  6  7  8  9  10  11  12  13  23  28  29  30  31  32 0
 6-311+G(2d,p)
 ****
 33  34 0
 6-311+G(2d,p)
 ****
 1  2  14  15  16  17  18  19  20  21  22  24  25  26  27 0
 3-21G
 ****
 35  36  37  38  39  40  41  42  43  44  45 0
 3-21G
 ****


