%nproc=1
%NoSave
%Mem=1900MB
#P OB98/GEN NMR

erre ene a

0 1
  C     -626.884    -119.662     -59.999
  O     -626.548    -120.094     -61.326
  P     -624.994    -120.104     -61.729
  C     -624.693    -118.069     -63.330
  O     -624.840    -119.487     -63.206
  C     -625.838    -117.456     -64.140
  O     -625.725    -117.828     -65.546
  C     -627.232    -117.913     -63.677
  O     -628.170    -116.854     -63.942
  C     -627.534    -119.066     -64.610
  O     -628.928    -119.360     -64.650
  C     -626.940    -118.534     -65.917
  N     -628.661    -121.009     -69.955
  C     -629.251    -120.008     -69.212
  N     -630.459    -119.569     -69.624
  N     -628.696    -119.462     -68.147
  C     -627.462    -119.978     -67.884
  C     -626.789    -120.973     -68.535
  C     -627.424    -121.584     -69.694
  O     -626.954    -122.477     -70.381
  N     -625.579    -121.241     -67.944
  C     -625.533    -120.394     -66.922
  N     -626.637    -119.587     -66.856
  O     -624.686    -121.660     -61.945
  O     -624.091    -119.514     -60.684
  H     -629.389    -118.573     -65.034
  H     -624.138    -121.991     -61.218
  H     -629.139    -121.393     -70.764
  H     -624.725    -120.336     -66.196
  H     -627.608    -117.823     -66.425
  H     -627.006    -119.971     -64.275
  H     -630.919    -119.899     -70.467
  H     -627.295    -118.185     -62.624
  H     -630.894    -118.804     -69.125
  H     -625.769    -116.363     -64.077
  H     -623.739    -117.838     -63.818
  H     -624.636    -117.631     -62.324
  P     -628.611    -115.948     -62.690
  C     -630.999    -116.952     -62.417
  O     -630.212    -115.826     -62.762
  O     -628.108    -114.476     -63.087
  O     -628.058    -116.394     -61.377
  H     -627.968    -113.940     -62.279
  H     -631.414    -116.787     -61.422
  H     -630.406    -117.882     -62.408
  H     -631.818    -117.045     -63.133
  H     -627.945    -119.705     -59.868
  H     -626.547    -118.657     -59.855
  H     -626.410    -120.302     -59.285

 3  4  5  6  7  8  9  10  11  12  23  26  30  31 0
 6-311+G(2d,p)
 ****
 33  35  36  37  38 0
 6-311+G(2d,p)
 ****
 1  2  13  14  15  16  17  18  19  20  21  22  24  25 0
 3-21G
 ****
 27  28  29  32  34  39  40  41  42  43  44  45  46  47  48  49 0
 3-21G
 ****


