%nproc=1
%NoSave
%Mem=1900MB
#P OB98/GEN NMR

erre ene a

0 1
  C       17.779     200.305      41.428
  O       16.650     199.994      40.636
  H       18.303     201.150      40.973
  H       18.464     199.455      41.483
  H       17.463     200.593      42.435
  P       15.859     198.632      40.949
  C       16.640     197.454      38.787
  O       16.695     197.472      40.212
  C       16.601     196.018      38.259
  O       17.941     195.522      38.069
  C       15.944     195.032      39.213
  O       14.552     195.211      39.359
  C       16.484     193.695      38.726
  O       15.724     193.131      37.663
  C       17.891     194.088      38.211
  N       18.950     193.591      39.081
  C       19.590     192.433      38.655
  O       19.286     191.828      37.625
  N       20.571     191.955      39.479
  C       20.929     192.485      40.683
  O       21.791     191.985      41.397
  C       20.201     193.695      41.094
  C       19.257     194.187      40.286
  O       14.399     198.633      40.611
  O       16.161     198.365      42.497
  H       15.684     193.800      36.952
  H       15.525     197.712      42.876
  H       21.052     191.121      39.181
  H       20.457     194.142      42.045
  H       18.704     195.079      40.568
  H       18.057     193.672      37.209
  H       16.508     192.957      39.530
  H       16.373     195.189      40.210
  H       16.098     196.022      37.285
  H       17.543     197.949      38.414
  H       15.763     198.012      38.445
  P       13.773     194.950      40.730
  C       13.166     192.468      40.256
  O       13.881     193.385      41.078
  O       12.453     195.630      40.894
  O       14.790     195.605      41.801
  H       14.250     195.989      42.518
  H       13.332     191.471      40.606
  H       13.508     192.553      39.246
  H       12.120     192.691      40.298

 6  7  8  9  10  11  12  13  14  15  16  26  31  32  33  34  35 0
 6-311+G(2d,p)
 ****
 36  37 0
 6-311+G(2d,p)
 ****
 1  2  3  4  5  17  18  19  20  21  22  23  24  25 0
 3-21G
 ****
 27  28  29  30  38  39  40  41  42  43  44  45 0
 3-21G
 ****


