%nproc=1
%NoSave
%Mem=1900MB
#P OB98/GEN NMR

erre ene a

0 1
  C      -24.122    -350.937      65.216
  O      -25.366    -351.582      65.046
  H      -24.208    -350.221      66.038
  H      -23.857    -350.394      64.305
  H      -23.340    -351.661      65.459
  P      -25.402    -352.819      64.023
  C      -26.812    -352.415      61.881
  O      -25.583    -352.192      62.555
  C      -27.656    -351.143      61.886
  O      -26.857    -350.008      61.478
  C      -28.855    -351.182      60.944
  O      -29.966    -351.851      61.525
  C      -29.131    -349.696      60.782
  O      -29.808    -349.195      61.953
  C      -27.711    -349.119      60.703
  N      -27.984    -346.579      56.322
  C      -28.699    -346.408      57.492
  N      -29.626    -345.427      57.493
  N      -28.526    -347.137      58.564
  C      -27.573    -348.088      58.416
  C      -26.799    -348.354      57.307
  C      -26.995    -347.538      56.133
  O      -26.374    -347.631      55.076
  N      -25.933    -349.392      57.539
  C      -26.196    -349.768      58.773
  N      -27.191    -349.012      59.350
  O      -26.827    -353.498      64.312
  O      -24.293    -353.805      64.171
  H      -29.226    -349.377      62.713
  H      -26.740    -354.465      64.215
  H      -28.167    -345.998      55.520
  H      -25.698    -350.572      59.298
  H      -27.640    -348.121      61.153
  H      -29.769    -349.474      59.924
  H      -29.845    -344.863      56.685
  H      -28.588    -351.610      59.968
  H      -30.139    -345.261      58.349
  H      -27.982    -350.959      62.919
  H      -27.363    -353.216      62.389
  H      -26.602    -352.725      60.851
  P      -31.107    -352.400      60.536
  C      -33.446    -351.295      60.780
  O      -32.108    -351.167      60.309
  O      -31.946    -353.392      61.472
  O      -30.603    -353.076      59.307
  H      -32.418    -354.045      60.923
  H      -33.989    -350.400      60.558
  H      -33.438    -351.455      61.838
  H      -33.916    -352.126      60.297

 6  7  8  9  10  11  12  13  14  15  26  29  33  34 0
 6-311+G(2d,p)
 ****
 36  38  39  40  41 0
 6-311+G(2d,p)
 ****
 1  2  3  4  5  16  17  18  19  20  21  22  23  24  25 0
 3-21G
 ****
 27  28  30  31  32  35  37  42  43  44  45  46  47 0
 3-21G
 ****
 48  49 0
 3-21G
 ****


