%nproc=1
%NoSave
%Mem=1900MB
#P OB98/GEN NMR

erre ene a

0 1
  C      -91.779    -348.439      75.774
  O      -90.603    -347.663      75.676
  H      -92.640    -347.768      75.803
  H      -91.772    -349.041      76.687
  H      -91.877    -349.091      74.900
  P      -89.188    -348.414      75.731
  C      -87.998    -347.030      77.561
  O      -88.105    -347.319      76.177
  C      -87.895    -345.516      77.798
  O      -86.583    -345.060      77.362
  C      -88.944    -344.695      77.025
  O      -89.220    -343.520      77.798
  C      -88.175    -344.339      75.766
  O      -88.811    -343.317      75.045
  C      -86.795    -344.042      76.360
  N      -85.744    -344.035      75.355
  C      -85.650    -342.887      74.564
  O      -86.439    -341.955      74.726
  N      -84.686    -342.833      73.590
  C      -83.928    -343.860      73.378
  N      -83.003    -343.750      72.386
  C      -84.033    -345.118      74.152
  C      -84.949    -345.132      75.119
  O      -88.820    -349.199      74.515
  O      -89.301    -349.357      77.022
  H      -89.784    -343.472      74.998
  H      -89.433    -350.283      76.742
  H      -83.389    -345.956      73.922
  H      -85.101    -346.011      75.739
  H      -86.793    -343.070      76.872
  H      -88.115    -345.204      75.096
  H      -89.866    -345.250      76.835
  H      -87.959    -345.324      78.876
  H      -82.972    -342.876      71.876
  H      -87.094    -347.528      77.933
  H      -82.374    -344.494      72.119
  H      -88.866    -347.427      78.100
  P      -90.681    -343.167      78.351
  C      -90.604    -340.618      77.939
  O      -90.689    -341.661      78.905
  O      -91.229    -344.171      79.313
  O      -91.611    -343.081      77.046
  H      -92.518    -343.357      77.283
  H      -90.619    -339.670      78.435
  H      -91.436    -340.683      77.270
  H      -89.693    -340.717      77.386

 6  7  8  9  10  11  12  13  14  15  16  26  30  31  32  33  35 0
 6-311+G(2d,p)
 ****
 37  38 0
 6-311+G(2d,p)
 ****
 1  2  3  4  5  17  18  19  20  21  22  23  24  25 0
 3-21G
 ****
 27  28  29  34  36  39  40  41  42  43  44  45  46 0
 3-21G
 ****


