%nproc=1
%NoSave
%Mem=1900MB
#P OB98/GEN NMR

erre ene a

0 1
  C      250.020    -619.939      32.277
  O      251.425    -619.842      32.145
  H      249.637    -620.550      31.454
  H      249.569    -618.948      32.215
  H      249.755    -620.418      33.224
  P      252.259    -619.079      33.280
  C      254.181    -619.721      34.869
  O      253.501    -620.027      33.661
  C      255.383    -620.634      35.056
  O      254.907    -621.969      35.378
  C      256.282    -620.738      33.820
  O      257.643    -620.815      34.254
  C      255.872    -622.064      33.196
  O      256.917    -622.648      32.428
  C      255.489    -622.888      34.429
  N      254.933    -627.893      34.091
  C      256.005    -627.147      34.542
  N      257.103    -627.824      34.952
  N      256.006    -625.834      34.601
  C      254.831    -625.286      34.178
  C      253.708    -625.923      33.706
  C      253.734    -627.364      33.638
  O      252.825    -628.084      33.237
  N      252.740    -625.009      33.346
  C      253.282    -623.835      33.602
  N      254.556    -623.948      34.100
  O      251.462    -618.606      34.458
  O      252.951    -617.860      32.508
  H      257.059    -622.070      31.649
  H      252.454    -617.031      32.656
  H      255.000    -628.901      34.066
  H      252.800    -622.877      33.443
  H      256.360    -623.366      34.902
  H      255.006    -621.908      32.542
  H      257.166    -628.832      34.950
  H      256.153    -619.897      33.128
  H      257.889    -627.294      35.312
  H      255.950    -620.291      35.928
  H      253.482    -619.852      35.701
  H      254.505    -618.671      34.845
  P      258.578    -619.522      34.080
  C      261.094    -618.994      33.886
  O      260.105    -620.011      34.026
  O      258.302    -618.396      35.017
  O      258.310    -619.089      32.560
  H      258.418    -618.111      32.486
  H      262.065    -619.442      33.862
  H      261.032    -618.320      34.715
  H      260.927    -618.457      32.976

 6  7  8  9  10  11  12  13  14  15  26  29  33  34 0
 6-311+G(2d,p)
 ****
 36  38  39  40  41 0
 6-311+G(2d,p)
 ****
 1  2  3  4  5  16  17  18  19  20  21  22  23  24  25 0
 3-21G
 ****
 27  28  30  31  32  35  37  42  43  44  45  46  47 0
 3-21G
 ****
 48  49 0
 3-21G
 ****


