%nproc=1
%NoSave
%Mem=1900MB
#P OB98/GEN NMR

erre ene a

0 1
  C      -12.141      -5.066    -164.174
  O      -10.969      -5.541    -164.815
  P      -10.167      -6.748    -164.126
  C       -8.900      -4.957    -162.734
  O       -9.566      -6.214    -162.734
  C       -8.265      -4.679    -161.370
  O       -9.305      -4.602    -160.358
  C       -7.274      -5.758    -160.920
  O       -6.220      -5.146    -160.159
  C       -8.086      -6.611    -159.967
  O       -7.250      -7.318    -159.052
  C       -8.974      -5.547    -159.319
  N      -10.780      -8.868    -155.958
  C       -9.500      -8.362    -156.096
  N       -8.561      -8.882    -155.275
  N       -9.174      -7.430    -156.951
  C      -10.220      -7.012    -157.708
  C      -11.532      -7.423    -157.658
  C      -11.875      -8.465    -156.714
  O      -12.983      -8.977    -156.564
  N      -12.310      -6.742    -158.559
  C      -11.462      -5.947    -159.188
  N      -10.178      -6.101    -158.733
  O       -8.876      -6.900    -165.063
  O      -10.923      -8.033    -164.045
  H       -6.779      -8.001    -159.567
  H       -8.968      -7.694    -165.625
  H      -10.979      -9.595    -155.292
  H      -11.721      -5.267    -159.991
  H       -8.438      -5.000    -158.534
  H       -8.679      -7.342    -160.525
  H       -8.732      -9.649    -154.642
  H       -6.838      -6.343    -161.739
  H       -7.606      -8.561    -155.385
  H       -7.779      -3.696    -161.406
  H       -9.622      -4.172    -162.960
  H       -8.132      -4.950    -163.516
  P       -4.724      -5.590    -160.549
  C       -4.409      -6.824    -158.277
  O       -4.420      -6.907    -159.686
  O       -3.819      -4.466    -159.857
  O       -4.482      -5.700    -162.018
  H       -2.967      -4.382    -160.332
  H       -5.210      -7.454    -157.876
  H       -4.555      -5.799    -157.920
  H       -3.449      -7.191    -157.906
  H      -12.562      -4.267    -164.747
  H      -11.893      -4.711    -163.195
  H      -12.852      -5.862    -164.095

 3  4  5  6  7  8  9  10  11  12  23  26  30  31 0
 6-311+G(2d,p)
 ****
 33  35  36  37  38 0
 6-311+G(2d,p)
 ****
 1  2  13  14  15  16  17  18  19  20  21  22  24  25 0
 3-21G
 ****
 27  28  29  32  34  39  40  41  42  43  44  45  46  47  48  49 0
 3-21G
 ****


