%nproc=1
%NoSave
%Mem=1900MB
#P OB98/GEN NMR

erre ene a

0 1
  C      408.658     267.440      56.355
  O      407.660     267.338      55.367
  P      406.821     268.637      54.940
  C      407.137     268.194      52.421
  O      406.194     268.357      53.487
  C      406.609     267.187      51.403
  O      406.581     265.864      51.968
  C      405.186     267.460      50.930
  O      405.158     268.524      49.998
  C      404.800     266.105      50.359
  O      405.308     265.952      49.027
  C      405.509     265.136      51.321
  N      401.641     261.894      52.064
  C      402.222     262.372      50.939
  N      403.227     263.260      50.820
  C      403.615     263.694      52.030
  C      403.096     263.334      53.273
  C      402.073     262.364      53.266
  N      401.521     261.835      54.407
  N      403.740     264.015      54.279
  C      404.624     264.785      53.672
  N      404.618     264.575      52.317
  O      407.540     269.941      55.079
  O      405.538     268.591      55.892
  H      404.688     266.398      48.419
  H      405.512     269.397      56.446
  H      401.826     261.970      50.015
  H      405.286     265.496      54.156
  H      405.973     264.303      50.788
  H      403.715     265.961      50.311
  H      404.545     267.681      51.793
  H      407.299     267.172      50.548
  H      408.081     267.838      52.841
  H      400.904     261.043      54.296
  H      402.029     261.938      55.289
  H      407.306     269.165      51.939
  P      403.818     269.378      49.812
  C      404.723     271.028      51.555
  O      404.163     270.882      50.264
  O      402.587     268.800      50.419
  O      403.679     269.518      48.221
  H      402.737     269.562      47.985
  H      403.936     270.958      52.318
  H      405.187     272.019      51.636
  H      405.486     270.266      51.745
  H      409.108     266.481      56.508
  H      408.220     267.778      57.271
  H      409.404     268.138      56.037

 3  4  5  6  7  8  9  10  11  12  22  25  29  30  31  32 0
 6-311+G(2d,p)
 ****
 33  36  37 0
 6-311+G(2d,p)
 ****
 1  2  13  14  15  16  17  18  19  20  21  23  24  26 0
 3-21G
 ****
 27  28  34  35  38  39  40  41  42  43  44  45  46  47  48 0
 3-21G
 ****


