%nproc=1
%NoSave
%Mem=1900MB
#P OB98/GEN NMR

erre ene a

0 1
  C       78.525     428.039     237.042
  O       78.201     426.875     237.822
  P       79.138     425.565     237.822
  C       79.561     423.515     236.314
  O       78.699     424.617     236.599
  C       78.914     422.530     235.329
  O       77.893     421.746     235.976
  C       78.232     423.194     234.132
  O       79.192     423.582     233.164
  C       77.280     422.087     233.683
  O       77.976     421.118     232.887
  C       76.854     421.479     235.023
  N       71.854     421.923     233.989
  C       72.868     421.312     233.322
  N       74.176     421.246     233.657
  C       74.395     421.867     234.833
  C       73.462     422.532     235.617
  C       72.137     422.551     235.154
  N       71.111     423.183     235.823
  N       74.063     423.067     236.735
  C       75.334     422.723     236.641
  N       75.577     421.995     235.507
  O       79.208     424.865     239.142
  O       80.581     426.099     237.379
  H       78.313     421.571     232.093
  H       81.275     425.521     237.761
  H       72.588     420.823     232.391
  H       76.112     422.967     237.365
  H       76.758     420.381     234.957
  H       76.448     422.469     233.081
  H       77.649     424.062     234.461
  H       79.695     421.843     234.986
  H       79.779     422.999     237.258
  H       70.193     423.175     235.405
  H       71.322     423.689     236.671
  H       80.494     423.907     235.899
  P       79.331     425.130     232.751
  C       77.860     426.838     231.539
  O       78.121     425.466     231.757
  O       80.684     425.547     232.274
  O       78.926     425.920     234.087
  H       79.394     426.770     234.118
  H       77.279     427.247     232.375
  H       77.268     426.938     230.620
  H       78.788     427.403     231.420
  H       77.774     428.787     237.188
  H       78.568     427.774     236.006
  H       79.475     428.423     237.351

 3  4  5  6  7  8  9  10  11  12  22  25  29  30  31  32 0
 6-311+G(2d,p)
 ****
 33  36  37 0
 6-311+G(2d,p)
 ****
 1  2  13  14  15  16  17  18  19  20  21  23  24  26 0
 3-21G
 ****
 27  28  34  35  38  39  40  41  42  43  44  45  46  47  48 0
 3-21G
 ****


