%nproc=1
%NoSave
%Mem=1900MB
#P OB98/GEN NMR

erre ene a

0 1
  C     -437.122    -738.191    -103.787
  O     -436.240    -738.105    -104.899
  P     -434.784    -738.761    -104.744
  C     -434.151    -738.947    -107.298
  O     -433.958    -738.296    -106.033
  C     -432.882    -738.811    -108.145
  O     -432.624    -737.424    -108.429
  C     -431.618    -739.339    -107.488
  O     -431.544    -740.755    -107.530
  C     -430.540    -738.625    -108.310
  O     -430.330    -739.311    -109.557
  C     -431.186    -737.261    -108.558
  N     -430.698    -736.207    -107.661
  C     -430.204    -735.063    -108.267
  O     -430.166    -734.909    -109.494
  N     -429.724    -734.091    -107.429
  C     -429.629    -734.191    -106.064
  O     -429.152    -733.310    -105.360
  C     -430.137    -735.438    -105.479
  C     -430.643    -736.375    -106.293
  O     -435.121    -740.300    -104.999
  O     -434.149    -738.456    -103.423
  H     -435.909    -740.411    -105.563
  H     -429.508    -738.943    -109.947
  H     -429.378    -733.239    -107.845
  H     -430.077    -735.553    -104.405
  H     -431.010    -737.305    -105.871
  H     -431.016    -736.932    -109.586
  H     -429.580    -738.585    -107.792
  H     -431.570    -739.008    -106.447
  H     -433.062    -739.319    -109.105
  H     -434.986    -738.482    -107.810
  H     -434.384    -739.997    -107.116
  P     -430.429    -741.453    -106.611
  C     -431.596    -743.704    -105.972
  O     -430.636    -743.032    -106.763
  O     -430.977    -741.120    -105.142
  O     -429.043    -740.956    -106.879
  H     -431.943    -741.235    -105.064
  H     -431.842    -744.652    -106.451
  H     -432.512    -743.114    -105.877
  H     -431.180    -743.907    -104.984
  H     -438.049    -737.715    -104.030
  H     -436.681    -737.703    -102.943
  H     -437.300    -739.220    -103.551

 3  4  5  6  7  8  9  10  11  12  13  24  28  29  30  31  32 0
 6-311+G(2d,p)
 ****
 33  34 0
 6-311+G(2d,p)
 ****
 1  2  14  15  16  17  18  19  20  21  22  23  25  26  27 0
 3-21G
 ****
 35  36  37  38  39  40  41  42  43  44  45 0
 3-21G
 ****


