%nproc=1
%NoSave
%Mem=1900MB
#P OB98/GEN NMR

erre ene a

0 1
  C      -23.052     168.835     -71.230
  O      -21.754     168.636     -70.707
  H      -23.182     169.897     -71.453
  H      -23.803     168.540     -70.494
  H      -23.194     168.264     -72.154
  P      -21.232     167.137     -70.484
  C      -21.973     165.144     -69.020
  O      -22.019     166.551     -69.214
  C      -23.056     164.717     -68.028
  O      -24.356     165.124     -68.507
  C      -23.145     163.211     -67.813
  O      -22.091     162.753     -66.984
  C      -24.536     163.092     -67.210
  O      -24.515     163.427     -65.808
  C      -25.314     164.160     -68.017
  N      -26.097     163.592     -69.116
  C      -27.368     163.128     -68.796
  O      -27.824     163.149     -67.654
  N      -28.103     162.622     -69.845
  C      -27.662     162.465     -71.124
  O      -28.336     161.953     -72.015
  C      -26.293     162.935     -71.399
  C      -25.586     163.473     -70.396
  O      -19.748     166.963     -70.435
  O      -21.876     166.328     -71.711
  H      -25.449     163.513     -65.531
  H      -21.206     166.198     -72.409
  H      -29.020     162.272     -69.628
  H      -25.909     162.822     -72.405
  H      -24.575     163.825     -70.576
  H      -26.001     164.711     -67.358
  H      -24.948     162.088     -67.288
  H      -23.138     162.688     -68.781
  H      -22.871     165.239     -67.080
  H      -20.985     164.877     -68.619
  H      -22.115     164.648     -69.989
  P      -21.200     161.497     -67.417
  C      -21.301     158.945     -67.201
  O      -21.994     160.168     -66.984
  O      -19.774     161.544     -66.971
  O      -21.301     161.476     -69.016
  H      -20.464     161.787     -69.402
  H      -21.912     158.127     -66.881
  H      -20.389     158.948     -66.642
  H      -21.081     158.840     -68.243

 6  7  8  9  10  11  12  13  14  15  16  26  31  32  33  34  35 0
 6-311+G(2d,p)
 ****
 36  37 0
 6-311+G(2d,p)
 ****
 1  2  3  4  5  17  18  19  20  21  22  23  24  25 0
 3-21G
 ****
 27  28  29  30  38  39  40  41  42  43  44  45 0
 3-21G
 ****


