%nproc=1
%NoSave
%Mem=1900MB
#P OB98/GEN NMR

erre ene a

0 1
  C       55.898    -363.041     132.481
  O       55.248    -364.299     132.472
  H       55.934    -362.662     131.457
  H       56.917    -363.146     132.861
  H       55.337    -362.340     133.101
  P       55.119    -365.053     133.884
  C       52.575    -364.728     133.617
  O       53.703    -364.556     134.467
  C       51.366    -363.969     134.177
  O       51.624    -362.548     134.064
  C       50.065    -364.267     133.426
  O       48.980    -364.312     134.359
  C       49.897    -363.057     132.515
  O       48.535    -362.831     132.166
  C       50.534    -361.948     133.351
  N       49.972    -356.989     132.287
  C       49.455    -357.766     133.260
  N       49.672    -359.086     133.489
  C       50.556    -359.575     132.590
  C       51.165    -358.901     131.553
  C       50.832    -357.544     131.400
  N       51.337    -356.747     130.395
  N       51.980    -359.763     130.833
  C       51.867    -360.925     131.441
  N       51.007    -360.865     132.511
  O       56.280    -364.896     134.811
  O       54.800    -366.552     133.427
  H       48.050    -362.582     132.983
  H       54.138    -366.571     132.708
  H       48.777    -357.274     133.948
  H       52.380    -361.836     131.153
  H       49.832    -361.516     134.079
  H       50.465    -363.218     131.590
  H       50.105    -365.199     132.864
  H       51.269    -364.196     135.245
  H       52.330    -365.794     133.526
  H       51.057    -355.776     130.375
  H       51.996    -357.145     129.743
  H       52.838    -364.347     132.625
  P       48.875    -365.571     135.331
  C       48.882    -364.261     137.558
  O       49.566    -365.210     136.741
  O       49.271    -366.890     134.748
  O       47.314    -365.578     135.717
  H       47.006    -366.509     135.778
  H       49.434    -364.104     138.461
  H       47.907    -364.632     137.796
  H       48.792    -363.335     137.030

 6  7  8  9  10  11  12  13  14  15  25  28  32  33  34  35 0
 6-311+G(2d,p)
 ****
 36  39  40 0
 6-311+G(2d,p)
 ****
 1  2  3  4  5  16  17  18  19  20  21  22  23  24 0
 3-21G
 ****
 26  27  29  30  31  37  38  41  42  43  44  45  46  47 0
 3-21G
 ****
 48 0
 3-21G
 ****


