%nproc=1
%NoSave
%Mem=1900MB
#P OB98/GEN NMR

erre ene a

0 1
  C     -197.455     -84.080     -76.018
  O     -197.703     -84.991     -74.961
  P     -199.231     -85.255     -74.541
  C     -199.280     -83.491     -72.626
  O     -199.773     -83.891     -73.892
  C     -200.434     -83.093     -71.700
  O     -201.009     -81.853     -72.189
  C     -201.571     -84.116     -71.616
  O     -202.114     -84.030     -70.290
  C     -202.585     -83.589     -72.615
  O     -203.900     -84.079     -72.375
  C     -202.418     -82.086     -72.420
  N     -206.428     -80.170     -74.837
  C     -206.372     -80.978     -73.714
  N     -207.552     -81.264     -73.126
  N     -205.264     -81.459     -73.219
  C     -204.161     -81.074     -73.908
  C     -204.091     -80.315     -75.051
  C     -205.322     -79.759     -75.569
  O     -205.407     -78.969     -76.506
  N     -202.804     -80.213     -75.511
  C     -202.088     -80.845     -74.598
  N     -202.863     -81.345     -73.583
  O     -199.090     -86.242     -73.288
  O     -200.111     -85.815     -75.615
  H     -203.833     -85.035     -72.180
  H     -199.155     -87.175     -73.566
  H     -207.313     -79.814     -75.163
  H     -201.017     -80.968     -74.616
  H     -202.974     -81.710     -71.554
  H     -202.294     -83.892     -73.628
  H     -208.444     -80.902     -73.434
  H     -201.257     -85.143     -71.832
  H     -207.538     -81.826     -72.281
  H     -200.023     -82.893     -70.704
  H     -198.625     -82.623     -72.758
  H     -198.692     -84.302     -72.184
  P     -202.899     -85.305     -69.716
  C     -205.068     -84.194     -70.593
  O     -204.313     -85.380     -70.461
  O     -203.292     -84.840     -68.229
  O     -202.105     -86.570     -69.685
  H     -203.301     -85.615     -67.640
  H     -205.762     -84.308     -71.429
  H     -204.428     -83.325     -70.785
  H     -205.641     -84.023     -69.678
  H     -196.401     -84.006     -76.185
  H     -197.844     -83.118     -75.758
  H     -197.933     -84.429     -76.909

 3  4  5  6  7  8  9  10  11  12  23  26  30  31 0
 6-311+G(2d,p)
 ****
 33  35  36  37  38 0
 6-311+G(2d,p)
 ****
 1  2  13  14  15  16  17  18  19  20  21  22  24  25 0
 3-21G
 ****
 27  28  29  32  34  39  40  41  42  43  44  45  46  47  48  49 0
 3-21G
 ****


