%nproc=1
%NoSave
%Mem=1900MB
#P OB98/GEN NMR

erre ene a

0 1
  C      143.875      40.023      12.050
  O      145.092      40.600      12.489
  P      144.994      41.879      13.455
  C      146.142      43.606      11.881
  O      144.943      43.172      12.512
  C      145.814      44.428      10.637
  O      145.220      43.588       9.628
  C      144.815      45.554      10.867
  O      145.424      46.653      11.526
  C      144.375      45.834       9.435
  O      145.364      46.630       8.762
  C      144.334      44.420       8.832
  N      141.200      41.050       6.587
  C      142.470      41.424       6.311
  N      143.229      42.343       6.941
  C      142.555      42.898       7.960
  C      141.252      42.636       8.347
  C      140.561      41.660       7.612
  N      139.264      41.285       7.894
  N      140.892      43.419       9.423
  C      141.965      44.134       9.690
  N      143.000      43.846       8.843
  O      146.450      41.954      14.109
  O      143.916      41.802      14.492
  H      145.438      47.474       9.250
  H      146.404      42.282      15.028
  H      142.938      40.915       5.474
  H      142.041      44.865      10.483
  H      144.696      44.393       7.798
  H      143.423      46.372       9.375
  H      143.963      45.195      11.458
  H      146.756      44.830      10.238
  H      146.733      42.734      11.581
  H      138.797      40.689       7.230
  H      138.746      41.838       8.565
  H      146.726      44.192      12.596
  P      144.586      47.365      12.696
  C      143.729      49.232      11.155
  O      143.382      48.090      11.917
  O      145.541      48.587      13.080
  O      144.189      46.469      13.818
  H      145.843      49.076      12.295
  H      142.835      49.593      10.640
  H      144.489      48.975      10.412
  H      144.101      50.023      11.812
  H      144.085      39.186      11.418
  H      143.312      40.750      11.503
  H      143.309      39.697      12.897

 3  4  5  6  7  8  9  10  11  12  22  25  29  30  31  32 0
 6-311+G(2d,p)
 ****
 33  36  37 0
 6-311+G(2d,p)
 ****
 1  2  13  14  15  16  17  18  19  20  21  23  24  26 0
 3-21G
 ****
 27  28  34  35  38  39  40  41  42  43  44  45  46  47  48 0
 3-21G
 ****


