%nproc=1
%NoSave
%Mem=1900MB
#P OB98/GEN NMR

erre ene a

0 1
  C     1112.791    -440.095    -802.278
  O     1113.329    -439.949    -800.976
  P     1114.868    -440.381    -800.773
  C     1114.469    -442.900    -801.333
  O     1114.818    -441.944    -800.351
  C     1115.270    -444.167    -801.191
  O     1116.653    -443.914    -801.456
  C     1115.227    -444.789    -799.796
  O     1114.070    -445.586    -799.593
  C     1116.475    -445.670    -799.840
  O     1116.174    -446.889    -800.543
  C     1117.462    -444.815    -800.651
  N     1121.598    -445.032    -797.677
  C     1120.918    -446.011    -798.312
  N     1119.819    -445.845    -799.084
  C     1119.402    -444.581    -799.123
  C     1119.995    -443.497    -798.465
  C     1121.170    -443.762    -797.715
  N     1121.887    -442.783    -797.072
  N     1119.293    -442.335    -798.742
  C     1118.338    -442.696    -799.515
  N     1118.346    -444.030    -799.805
  O     1115.279    -439.654    -799.395
  O     1115.791    -440.031    -801.888
  H     1115.379    -447.288    -800.120
  H     1116.255    -439.552    -799.358
  H     1121.282    -447.008    -798.216
  H     1117.578    -442.026    -799.949
  H     1118.078    -445.412    -801.325
  H     1116.809    -445.958    -798.839
  H     1115.366    -444.036    -799.013
  H     1114.911    -444.904    -801.944
  H     1114.638    -442.471    -802.330
  H     1122.800    -443.019    -796.713
  H     1121.675    -441.823    -797.294
  H     1113.376    -443.122    -801.255
  P     1112.852    -444.863    -798.788
  C     1113.969    -444.936    -796.422
  O     1112.959    -445.431    -797.293
  O     1111.551    -445.612    -799.380
  O     1112.791    -443.377    -798.952
  H     1110.772    -445.017    -799.295
  H     1113.724    -445.134    -795.397
  H     1114.041    -443.826    -796.537
  H     1114.940    -445.376    -796.697
  H     1111.770    -439.776    -802.280
  H     1112.845    -441.122    -802.573
  H     1113.352    -439.497    -802.965

 3  4  5  6  7  8  9  10  11  12  22  25  29  30  31  32 0
 6-311+G(2d,p)
 ****
 33  36  37 0
 6-311+G(2d,p)
 ****
 1  2  13  14  15  16  17  18  19  20  21  23  24  26 0
 3-21G
 ****
 27  28  34  35  38  39  40  41  42  43  44  45  46  47  48 0
 3-21G
 ****


