%nproc=1
%NoSave
%Mem=1900MB
#P OB98/GEN NMR

erre ene a

0 1
  C       77.779     268.252    -123.765
  O       78.498     268.776    -124.860
  H       77.751     269.002    -122.971
  H       78.280     267.358    -123.382
  H       76.754     268.008    -124.058
  P       78.534     267.904    -126.206
  C       81.047     267.396    -125.801
  O       80.063     267.882    -126.699
  C       82.327     268.226    -125.912
  O       82.862     268.080    -127.253
  C       82.118     269.720    -125.650
  O       83.249     270.222    -124.932
  C       82.091     270.329    -127.039
  O       82.469     271.706    -127.043
  C       83.042     269.398    -127.804
  N       82.778     269.428    -129.240
  C       83.297     270.514    -129.951
  O       83.933     271.393    -129.365
  N       83.038     270.614    -131.293
  C       82.253     269.750    -131.861
  N       82.007     269.918    -133.190
  C       81.626     268.627    -131.135
  C       81.937     268.523    -129.844
  O       77.818     268.850    -127.278
  O       77.895     266.560    -126.115
  H       82.347     272.056    -127.951
  H       77.338     268.326    -127.947
  H       80.960     267.947    -131.647
  H       81.518     267.735    -129.227
  H       84.087     269.690    -127.632
  H       81.077     270.257    -127.451
  H       81.205     269.936    -125.086
  H       83.072     267.808    -125.225
  H       82.441     270.711    -133.647
  H       81.275     266.356    -126.051
  H       81.379     269.336    -133.721
  H       80.657     267.436    -124.777
  P       83.194     270.110    -123.333
  C       81.889     272.348    -123.114
  O       83.031     271.590    -122.735
  O       84.690     269.704    -122.938
  O       82.200     269.114    -122.835
  H       84.715     268.775    -122.643
  H       81.922     273.305    -122.637
  H       81.002     271.831    -122.814
  H       81.884     272.478    -124.176

 6  7  8  9  10  11  12  13  14  15  16  26  30  31  32  33  35 0
 6-311+G(2d,p)
 ****
 37  38 0
 6-311+G(2d,p)
 ****
 1  2  3  4  5  17  18  19  20  21  22  23  24  25 0
 3-21G
 ****
 27  28  29  34  36  39  40  41  42  43  44  45  46 0
 3-21G
 ****


