%nproc=1
%NoSave
%Mem=1900MB
#P OB98/GEN NMR

erre ene a

0 1
  C     -919.438    -737.293     372.093
  O     -918.354    -737.277     373.012
  H     -919.539    -738.296     371.685
  H     -919.230    -736.596     371.275
  H     -920.378    -737.013     372.580
  P     -918.163    -736.009     373.976
  C     -918.588    -737.455     376.069
  O     -917.694    -736.585     375.397
  C     -917.945    -738.042     377.323
  O     -916.895    -738.982     376.933
  C     -917.291    -736.988     378.238
  O     -917.383    -737.472     379.586
  C     -915.844    -737.033     377.773
  O     -914.971    -736.442     378.722
  C     -915.673    -738.529     377.529
  N     -914.506    -738.829     376.682
  C     -913.392    -739.366     377.324
  O     -913.349    -739.565     378.547
  N     -912.307    -739.634     376.524
  C     -912.217    -739.361     375.198
  O     -911.215    -739.594     374.540
  C     -913.409    -738.749     374.579
  C     -914.486    -738.522     375.338
  O     -919.320    -735.064     374.026
  O     -916.839    -735.301     373.418
  H     -915.314    -735.577     378.991
  H     -916.886    -734.337     373.584
  H     -911.497    -740.026     376.977
  H     -913.363    -738.522     373.530
  H     -915.379    -738.066     374.909
  H     -915.542    -739.063     378.478
  H     -915.729    -736.478     376.830
  H     -917.747    -736.000     378.153
  H     -918.694    -738.629     377.880
  H     -918.862    -738.262     375.373
  H     -919.502    -736.910     376.334
  P     -917.727    -736.494     380.817
  C     -919.812    -737.848     381.482
  O     -918.581    -737.315     381.910
  O     -918.350    -735.185     380.417
  O     -916.318    -736.246     381.530
  H     -916.324    -735.374     381.999
  H     -920.278    -738.366     382.294
  H     -919.644    -738.529     380.674
  H     -920.449    -737.054     381.153

 6  7  8  9  10  11  12  13  14  15  16  26  31  32  33  34  35 0
 6-311+G(2d,p)
 ****
 36  37 0
 6-311+G(2d,p)
 ****
 1  2  3  4  5  17  18  19  20  21  22  23  24  25 0
 3-21G
 ****
 27  28  29  30  38  39  40  41  42  43  44  45 0
 3-21G
 ****


