%nproc=1
%NoSave
%Mem=1900MB
#P OB98/GEN NMR

erre ene a

0 1
  C     -293.346    -820.021    -229.640
  O     -293.742    -819.800    -230.980
  P     -294.798    -820.783    -231.688
  C     -295.942    -819.461    -233.576
  O     -294.873    -820.321    -233.225
  C     -295.814    -819.023    -235.034
  O     -294.627    -818.211    -235.237
  C     -295.654    -820.171    -236.016
  O     -296.750    -821.051    -236.177
  C     -295.165    -819.436    -237.258
  O     -296.254    -818.845    -237.974
  C     -294.267    -818.338    -236.632
  N     -292.838    -818.643    -236.798
  C     -292.335    -818.468    -238.090
  O     -293.020    -818.092    -239.050
  N     -291.006    -818.785    -238.264
  C     -290.182    -819.272    -237.302
  O     -289.012    -819.572    -237.525
  C     -290.778    -819.446    -235.962
  C     -292.060    -819.123    -235.778
  O     -296.123    -820.882    -231.013
  O     -294.002    -822.174    -231.785
  H     -295.873    -818.315    -238.697
  H     -293.179    -822.131    -232.298
  H     -290.635    -818.681    -239.192
  H     -290.131    -819.824    -235.178
  H     -292.519    -819.243    -234.803
  H     -294.475    -817.363    -237.100
  H     -294.648    -820.105    -237.953
  H     -294.814    -820.797    -235.670
  H     -296.676    -818.389    -235.285
  H     -295.908    -818.566    -232.931
  H     -296.901    -819.967    -233.398
  P     -296.736    -822.283    -237.197
  C     -298.361    -823.982    -236.101
  O     -298.169    -823.023    -237.114
  O     -295.517    -823.152    -237.205
  O     -296.844    -821.530    -238.616
  H     -296.384    -822.048    -239.304
  H     -299.359    -824.415    -236.212
  H     -298.299    -823.519    -235.117
  H     -297.629    -824.784    -236.184
  H     -292.643    -819.269    -229.347
  H     -292.891    -820.986    -229.557
  H     -294.204    -819.975    -229.002

 3  4  5  6  7  8  9  10  11  12  13  23  28  29  30  31  32 0
 6-311+G(2d,p)
 ****
 33  34 0
 6-311+G(2d,p)
 ****
 1  2  14  15  16  17  18  19  20  21  22  24  25  26  27 0
 3-21G
 ****
 35  36  37  38  39  40  41  42  43  44  45 0
 3-21G
 ****


