%nproc=1
%NoSave
%Mem=1900MB
#P OB98/GEN NMR

erre ene a

0 1
  C      168.067    -164.491      69.879
  O      167.292    -164.388      68.676
  P      166.695    -162.946      68.308
  C      165.774    -161.879      66.111
  O      165.935    -163.054      66.898
  C      165.235    -162.238      64.725
  O      166.220    -162.962      63.962
  C      164.016    -163.145      64.773
  O      162.857    -162.405      65.090
  C      164.010    -163.738      63.362
  O      163.236    -162.928      62.456
  C      165.505    -163.731      62.973
  N      166.056    -165.070      62.841
  C      165.803    -165.718      61.629
  O      165.135    -165.165      60.752
  N      166.299    -166.986      61.445
  C      166.961    -167.566      62.408
  N      167.422    -168.825      62.170
  C      167.221    -166.923      63.714
  C      166.744    -165.693      63.859
  O      167.998    -162.085      67.959
  O      165.895    -162.325      69.410
  H      163.781    -162.143      62.277
  H      167.864    -161.155      68.215
  H      167.767    -167.451      64.488
  H      166.886    -165.149      64.790
  H      165.643    -163.214      62.013
  H      163.553    -164.737      63.351
  H      164.170    -163.950      65.507
  H      164.990    -161.307      64.191
  H      167.224    -169.233      61.267
  H      166.729    -161.353      66.019
  H      167.941    -169.370      62.849
  H      165.087    -161.194      66.638
  P      162.147    -162.688      66.491
  C      160.643    -161.066      67.805
  O      160.900    -161.677      66.550
  O      163.168    -162.015      67.533
  O      161.857    -164.115      66.844
  H      162.893    -162.207      68.452
  H      159.911    -160.255      67.655
  H      161.557    -160.646      68.215
  H      160.219    -161.796      68.498
  H      168.401    -165.500      70.003
  H      167.464    -164.210      70.717
  H      168.914    -163.840      69.815

 3  4  5  6  7  8  9  10  11  12  13  21  23  27  28  29  30  32 0
 6-311+G(2d,p)
 ****
 34  35 0
 6-311+G(2d,p)
 ****
 1  2  14  15  16  17  18  19  20  22  24  25  26 0
 3-21G
 ****
 31  33  36  37  38  39  40  41  42  43  44  45  46 0
 3-21G
 ****


