%nproc=1
%NoSave
%Mem=1900MB
#P OB98/GEN NMR

erre ene a

0 1
  C      261.577     338.723    -186.056
  O      262.936     338.453    -185.706
  P      264.043     339.300    -186.506
  C      265.254     339.906    -184.293
  O      265.367     339.348    -185.595
  C      266.468     339.544    -183.437
  O      266.343     338.186    -182.910
  C      267.810     339.611    -184.195
  O      268.793     340.067    -183.255
  C      268.038     338.155    -184.559
  O      269.376     337.871    -184.946
  C      267.553     337.482    -183.273
  N      269.459     332.825    -182.416
  C      269.956     334.062    -182.178
  N      269.382     335.255    -182.442
  C      268.174     335.093    -183.008
  C      267.543     333.895    -183.318
  C      268.238     332.712    -182.999
  N      267.756     331.452    -183.261
  N      266.313     334.136    -183.917
  C      266.251     335.455    -184.028
  N      267.309     336.072    -183.417
  O      263.484     340.798    -186.453
  O      264.265     338.823    -187.906
  H      269.994     338.294    -184.319
  H      263.033     341.027    -187.288
  H      270.936     334.092    -181.714
  H      265.469     336.002    -184.532
  H      268.268     337.605    -182.454
  H      267.394     337.884    -185.403
  H      267.793     340.286    -185.051
  H      266.500     340.220    -182.573
  H      264.346     339.546    -183.810
  H      268.331     330.670    -183.000
  H      266.856     331.333    -183.702
  H      265.136     340.995    -184.384
  P      269.607     341.411    -183.581
  C      269.150     342.580    -181.339
  O      270.116     341.928    -182.146
  O      268.391     342.423    -183.862
  O      270.606     341.321    -184.680
  H      267.728     342.385    -183.157
  H      269.601     342.799    -180.372
  H      268.285     341.925    -181.184
  H      268.835     343.515    -181.815
  H      260.928     338.109    -185.467
  H      261.427     338.509    -187.093
  H      261.359     339.754    -185.869

 3  4  5  6  7  8  9  10  11  12  22  25  29  30  31  32 0
 6-311+G(2d,p)
 ****
 33  36  37 0
 6-311+G(2d,p)
 ****
 1  2  13  14  15  16  17  18  19  20  21  23  24  26 0
 3-21G
 ****
 27  28  34  35  38  39  40  41  42  43  44  45  46  47  48 0
 3-21G
 ****


