%nproc=1
%NoSave
%Mem=1900MB
#P OB98/GEN NMR

erre ene a

0 1
  C      713.119     119.369     -33.576
  O      713.111     120.561     -34.343
  H      714.116     118.928     -33.623
  H      712.398     118.658     -33.996
  H      712.870     119.585     -32.534
  P      711.809     121.484     -34.216
  C      711.509     121.722     -36.812
  O      711.714     122.363     -35.561
  C      711.641     122.732     -37.949
  O      710.511     123.631     -37.970
  C      712.833     123.660     -37.819
  O      714.064     123.014     -38.097
  C      712.475     124.729     -38.847
  O      712.873     124.349     -40.168
  C      710.933     124.789     -38.726
  N      710.488     126.038     -38.126
  C      710.500     127.150     -38.980
  O      710.849     127.020     -40.156
  N      710.154     128.373     -38.469
  C      709.852     128.483     -37.208
  N      709.546     129.731     -36.759
  C      709.825     127.341     -36.276
  C      710.157     126.155     -36.796
  O      712.246     122.553     -33.110
  O      710.553     120.749     -33.894
  H      712.345     123.551     -40.396
  H      713.110     122.959     -33.280
  H      709.558     127.487     -35.243
  H      710.168     125.259     -36.185
  H      710.470     124.704     -39.720
  H      712.975     125.677     -38.627
  H      712.848     124.132     -36.825
  H      711.663     122.182     -38.899
  H      709.623     130.498     -37.420
  H      710.523     121.243     -36.843
  H      709.371     129.948     -35.788
  H      712.262     120.933     -36.913
  P      715.148     122.765     -36.942
  C      717.017     124.307     -37.805
  O      716.593     122.961     -37.614
  O      714.998     121.490     -36.181
  O      715.022     124.080     -36.028
  H      715.196     124.917     -36.501
  H      717.987     124.315     -38.257
  H      717.060     124.805     -36.859
  H      716.322     124.813     -38.443

 6  7  8  9  10  11  12  13  14  15  16  26  30  31  32  33  35 0
 6-311+G(2d,p)
 ****
 37  38 0
 6-311+G(2d,p)
 ****
 1  2  3  4  5  17  18  19  20  21  22  23  24  25 0
 3-21G
 ****
 27  28  29  34  36  39  40  41  42  43  44  45  46 0
 3-21G
 ****


