%nproc=1
%NoSave
%Mem=1900MB
#P OB98/GEN NMR

erre ene a

0 1
  C      850.087    -694.003     311.265
  O      850.668    -692.754     310.974
  H      849.102    -693.831     311.718
  H      850.709    -694.549     311.979
  H      849.955    -694.603     310.363
  P      851.956    -692.711     310.020
  C      850.499    -691.731     308.126
  O      851.424    -692.731     308.509
  C      850.228    -691.772     306.617
  O      851.489    -691.604     305.910
  C      849.652    -693.129     306.184
  O      848.836    -693.016     305.023
  C      850.897    -693.929     305.852
  O      850.642    -695.017     304.957
  C      851.794    -692.845     305.254
  N      855.542    -696.242     304.572
  C      854.186    -696.422     304.477
  N      853.761    -697.671     304.150
  N      853.315    -695.467     304.697
  C      853.870    -694.299     305.076
  C      855.209    -694.001     305.236
  C      856.171    -695.056     304.951
  O      857.381    -694.964     305.044
  N      855.398    -692.712     305.662
  C      854.179    -692.220     305.756
  N      853.215    -693.139     305.396
  O      852.602    -694.167     310.187
  O      852.955    -691.627     310.324
  H      849.783    -695.411     305.202
  H      853.551    -694.151     309.946
  H      856.175    -697.005     304.356
  H      853.936    -691.207     306.068
  H      851.599    -692.716     304.181
  H      851.297    -694.355     306.768
  H      854.381    -698.459     304.158
  H      849.090    -693.617     306.982
  H      852.776    -697.884     304.374
  H      849.590    -690.931     306.326
  H      850.932    -690.767     308.418
  H      849.565    -691.835     308.688
  P      847.241    -693.119     305.190
  C      847.086    -690.908     303.742
  O      846.557    -691.745     304.758
  O      847.030    -693.151     306.786
  O      846.622    -694.296     304.521
  H      846.650    -694.007     307.061
  H      846.461    -690.047     303.628
  H      847.122    -691.447     302.819
  H      848.074    -690.598     304.013

 6  7  8  9  10  11  12  13  14  15  26  29  33  34 0
 6-311+G(2d,p)
 ****
 36  38  39  40  41 0
 6-311+G(2d,p)
 ****
 1  2  3  4  5  16  17  18  19  20  21  22  23  24  25 0
 3-21G
 ****
 27  28  30  31  32  35  37  42  43  44  45  46  47 0
 3-21G
 ****
 48  49 0
 3-21G
 ****


