%nproc=1
%NoSave
%Mem=1900MB
#P OB98/GEN NMR

erre ene a

0 1
  C       19.304     663.128     -74.561
  O       19.737     661.815     -74.261
  P       20.639     661.059     -75.364
  C       18.968     659.073     -75.189
  O       20.330     659.495     -75.204
  C       18.884     657.585     -74.859
  O       19.732     656.815     -75.732
  C       19.334     657.233     -73.447
  O       18.326     657.474     -72.479
  C       19.590     655.738     -73.588
  O       18.350     655.017     -73.515
  C       20.184     655.648     -75.004
  N       24.234     652.775     -74.044
  C       22.907     652.421     -74.113
  N       22.606     651.139     -73.839
  N       21.947     653.255     -74.441
  C       22.398     654.514     -74.688
  C       23.696     654.985     -74.644
  C       24.741     654.049     -74.278
  O       25.922     654.314     -74.142
  N       23.758     656.317     -74.959
  C       22.501     656.651     -75.193
  N       21.634     655.607     -74.998
  O       22.124     661.201     -74.782
  O       20.523     661.607     -76.748
  H       18.586     654.064     -73.459
  H       22.778     661.022     -75.486
  H       24.937     652.093     -73.788
  H       22.175     657.643     -75.490
  H       19.822     654.767     -75.538
  H       20.237     655.345     -72.797
  H       23.289     650.459     -73.523
  H       20.271     657.742     -73.187
  H       21.629     650.862     -73.825
  H       17.842     657.259     -75.023
  H       18.519     659.259     -76.172
  H       18.417     659.661     -74.448
  P       18.543     658.725     -71.501
  C       18.470     656.931     -69.622
  O       18.079     658.226     -70.051
  O       17.376     659.735     -71.948
  O       19.894     659.350     -71.586
  H       17.629     660.655     -71.749
  H       18.300     656.862     -68.536
  H       19.530     656.749     -69.831
  H       17.862     656.172     -70.128
  H       18.720     663.505     -73.748
  H       18.710     663.113     -75.451
  H       20.155     663.759     -74.711

 3  4  5  6  7  8  9  10  11  12  23  26  30  31 0
 6-311+G(2d,p)
 ****
 33  35  36  37  38 0
 6-311+G(2d,p)
 ****
 1  2  13  14  15  16  17  18  19  20  21  22  24  25 0
 3-21G
 ****
 27  28  29  32  34  39  40  41  42  43  44  45  46  47  48  49 0
 3-21G
 ****


