%nproc=1
%NoSave
%Mem=1900MB
#P OB98/GEN NMR

erre ene a

0 1
  C       93.093    -271.671      11.428
  O       93.188    -270.282      11.177
  H       93.495    -272.210      10.568
  H       92.046    -271.954      11.569
  H       93.674    -271.936      12.316
  P       92.661    -269.310      12.339
  C       93.913    -267.674      13.936
  O       93.959    -268.869      13.171
  C       95.217    -267.493      14.722
  O       95.356    -268.602      15.660
  C       96.480    -267.497      13.844
  O       97.475    -266.691      14.498
  C       96.890    -268.959      13.899
  O       98.206    -269.133      13.427
  C       96.619    -269.241      15.374
  N       99.350    -273.449      16.364
  C       99.720    -272.167      16.149
  N       98.935    -271.099      15.903
  C       97.637    -271.449      15.914
  C       97.108    -272.712      16.128
  C       98.030    -273.749      16.358
  N       97.657    -275.056      16.569
  N       95.727    -272.681      16.058
  C       95.430    -271.421      15.808
  N       96.552    -270.644      15.704
  O       91.890    -270.303      13.328
  O       91.792    -268.183      11.888
  H       98.240    -269.046      12.450
  H       90.937    -270.305      13.122
  H      100.789    -271.976      16.173
  H       94.432    -271.022      15.683
  H       97.377    -268.783      16.021
  H       96.243    -269.570      13.260
  H       96.307    -267.114      12.834
  H       95.150    -266.579      15.322
  H       93.068    -267.738      14.629
  H       93.768    -266.820      13.269
  H       98.381    -275.742      16.711
  H       96.678    -275.297      16.550
  P       97.747    -265.199      13.967
  C       96.228    -263.200      13.224
  O       96.366    -264.383      13.999
  O       97.952    -265.439      12.394
  O       98.932    -264.507      14.555
  H       98.534    -264.744      12.031
  H       95.249    -262.792      13.367
  H       96.370    -263.433      12.189
  H       96.961    -262.484      13.532

 6  7  8  9  10  11  12  13  14  15  25  28  32  33  34  35 0
 6-311+G(2d,p)
 ****
 36  37  40 0
 6-311+G(2d,p)
 ****
 1  2  3  4  5  16  17  18  19  20  21  22  23  24 0
 3-21G
 ****
 26  27  29  30  31  38  39 41  42  43  44  45  46  47  48 0
 3-21G
 ****


