%nproc=1
%NoSave
%Mem=1900MB
#P OB98/GEN NMR

erre ene a

0 1
  C      537.349     -13.880     -36.130
  O      536.814     -12.613     -36.461
  H      536.873     -14.654     -36.741
  H      538.422     -13.874     -36.339
  H      537.196     -14.096     -35.070
  P      535.283     -12.350     -36.067
  C      534.359     -14.279     -37.546
  O      534.537     -13.767     -36.233
  C      533.474     -15.525     -37.515
  O      533.361     -16.055     -38.865
  C      534.023     -16.644     -36.618
  O      532.930     -17.276     -35.951
  C      534.653     -17.610     -37.607
  O      534.719     -18.938     -37.097
  C      533.735     -17.450     -38.817
  N      535.720     -21.381     -41.398
  C      535.039     -21.317     -40.235
  N      534.539     -20.225     -39.619
  C      534.760     -19.121     -40.355
  C      535.442     -19.028     -41.557
  C      535.946     -20.234     -42.080
  N      536.672     -20.305     -43.246
  N      535.494     -17.716     -41.985
  C      534.854     -17.029     -41.057
  N      534.401     -17.834     -40.049
  O      534.748     -11.497     -37.318
  O      535.056     -11.648     -34.774
  H      535.358     -19.445     -37.644
  H      535.030     -10.565     -37.216
  H      534.879     -22.263     -39.729
  H      534.703     -15.958     -41.063
  H      532.823     -18.050     -38.737
  H      535.673     -17.282     -37.845
  H      534.741     -16.282     -35.882
  H      532.466     -15.231     -37.206
  H      535.339     -14.535     -37.966
  H      537.049     -21.197     -43.520
  H      536.901     -19.451     -43.740
  H      533.892     -13.510     -38.174
  P      532.673     -16.844     -34.424
  C      533.771     -18.944     -33.381
  O      533.788     -17.531     -33.502
  O      531.326     -17.619     -34.040
  O      532.518     -15.366     -34.241
  H      530.688     -17.004     -33.636
  H      534.568     -19.257     -32.739
  H      533.897     -19.386     -34.347
  H      532.835     -19.255     -32.966

 6  7  8  9  10  11  12  13  14  15  25  28  32  33  34  35 0
 6-311+G(2d,p)
 ****
 36  39  40 0
 6-311+G(2d,p)
 ****
 1  2  3  4  5  16  17  18  19  20  21  22  23  24 0
 3-21G
 ****
 26  27  29  30  31  37  38  41  42  43  44  45  46  47 0
 3-21G
 ****
 48 0
 3-21G
 ****


