%nproc=1
%NoSave
%Mem=1900MB
#P OB98/GEN NMR

erre ene a

0 1
  C     -342.184    -472.729     -71.643
  O     -341.441    -471.543     -71.403
  P     -341.034    -471.214     -69.885
  C     -339.335    -469.276     -70.443
  O     -340.587    -469.677     -69.879
  C     -339.156    -467.765     -70.284
  O     -340.131    -467.066     -71.082
  C     -339.341    -467.250     -68.868
  O     -338.210    -467.509     -68.055
  C     -339.601    -465.760     -69.128
  O     -338.365    -465.070     -69.353
  C     -340.427    -465.811     -70.423
  N     -341.869    -465.664     -70.202
  C     -342.520    -464.731     -71.000
  O     -341.945    -464.051     -71.855
  N     -343.864    -464.581     -70.777
  C     -344.588    -465.214     -69.800
  O     -345.783    -465.010     -69.613
  C     -343.840    -466.162     -68.965
  C     -342.535    -466.345     -69.206
  O     -339.671    -472.041     -69.757
  O     -342.100    -471.588     -68.905
  H     -339.229    -472.149     -70.616
  H     -337.978    -465.442     -70.173
  H     -344.363    -463.924     -71.358
  H     -344.378    -466.678     -68.180
  H     -341.965    -467.034     -68.588
  H     -340.108    -465.024     -71.112
  H     -340.106    -465.273     -68.291
  H     -340.227    -467.704     -68.414
  H     -338.159    -467.502     -70.666
  H     -339.324    -469.542     -71.499
  H     -338.533    -469.820     -69.936
  P     -338.373    -467.229     -66.483
  C     -336.057    -468.321     -65.942
  O     -336.890    -467.182     -65.872
  O     -338.964    -468.623     -65.972
  O     -339.226    -466.042     -66.173
  H     -338.529    -469.395     -66.377
  H     -335.019    -468.003     -65.821
  H     -336.156    -468.827     -66.904
  H     -336.312    -469.010     -65.131
  H     -342.383    -472.819     -72.690
  H     -343.109    -472.685     -71.107
  H     -341.620    -473.576     -71.313

 3  4  5  6  7  8  9  10  11  12  13  24  28  29  30  31  32 0
 6-311+G(2d,p)
 ****
 33  34 0
 6-311+G(2d,p)
 ****
 1  2  14  15  16  17  18  19  20  21  22  23  25  26  27 0
 3-21G
 ****
 35  36  37  38  39  40  41  42  43  44  45 0
 3-21G
 ****


