%nproc=1
%NoSave
%Mem=1900MB
#P OB98/GEN NMR

erre ene a

0 1
  C     -194.946    -139.758    -267.979
  O     -193.796    -139.173    -268.588
  P     -192.390    -139.930    -268.453
  C     -191.590    -138.634    -270.535
  O     -191.271    -139.072    -269.219
  C     -190.313    -138.244    -271.299
  O     -189.796    -137.003    -270.748
  C     -189.164    -139.254    -271.197
  O     -189.099    -140.302    -272.162
  C     -187.953    -138.355    -271.450
  O     -187.764    -138.182    -272.867
  C     -188.354    -137.027    -270.817
  N     -184.570    -134.810    -268.179
  C     -184.871    -134.813    -269.496
  N     -185.898    -135.430    -270.118
  C     -186.667    -136.086    -269.235
  C     -186.485    -136.170    -267.865
  C     -185.375    -135.494    -267.332
  N     -185.060    -135.497    -265.992
  N     -187.475    -136.940    -267.287
  C     -188.226    -137.330    -268.299
  N     -187.789    -136.829    -269.493
  O     -192.404    -141.391    -268.762
  O     -192.012    -139.681    -266.913
  H     -187.017    -137.563    -272.971
  H     -191.580    -140.483    -266.561
  H     -184.200    -134.248    -270.137
  H     -189.092    -137.972    -268.209
  H     -188.046    -136.167    -271.424
  H     -187.026    -138.789    -271.060
  H     -189.105    -139.678    -270.189
  H     -190.564    -138.068    -272.353
  H     -192.262    -137.774    -270.481
  H     -184.221    -135.024    -265.701
  H     -185.616    -136.051    -265.356
  H     -192.141    -139.438    -271.025
  P     -189.627    -141.778    -271.827
  C     -189.977    -142.849    -274.190
  O     -189.152    -142.692    -273.055
  O     -191.079    -141.874    -271.508
  O     -188.656    -142.235    -270.642
  H     -187.733    -142.371    -270.910
  H     -189.391    -143.320    -274.985
  H     -190.340    -141.883    -274.545
  H     -190.824    -143.496    -273.943
  H     -195.799    -139.137    -268.158
  H     -194.785    -139.848    -266.925
  H     -195.117    -140.728    -268.398

 3  4  5  6  7  8  9  10  11  12  22  25  29  30  31  32 0
 6-311+G(2d,p)
 ****
 33  36  37 0
 6-311+G(2d,p)
 ****
 1  2  13  14  15  16  17  18  19  20  21  23  24  26 0
 3-21G
 ****
 27  28  34  35  38  39  40  41  42  43  44  45  46  47  48 0
 3-21G
 ****


