%nproc=1
%NoSave
%Mem=1900MB
#P OB98/GEN NMR

erre ene a

0 1
  C      169.433    -357.687    -324.910
  O      169.932    -357.822    -323.598
  P      171.503    -357.761    -323.297
  C      171.591    -360.264    -322.682
  O      172.081    -359.243    -323.547
  C      172.267    -361.604    -323.003
  O      171.851    -362.590    -322.002
  C      171.885    -362.151    -324.393
  O      173.001    -362.490    -325.225
  C      170.942    -363.298    -324.056
  O      170.814    -364.255    -325.092
  C      171.524    -363.793    -322.724
  N      170.592    -364.646    -321.988
  C      171.134    -365.748    -321.325
  O      172.328    -366.038    -321.316
  N      170.236    -366.577    -320.708
  C      168.874    -366.479    -320.781
  O      168.126    -367.314    -320.283
  C      168.362    -365.313    -321.528
  C      169.228    -364.452    -322.066
  O      171.882    -357.172    -321.982
  O      172.087    -356.965    -324.561
  H      171.712    -364.484    -325.403
  H      171.915    -357.382    -325.425
  H      170.609    -367.373    -320.227
  H      167.288    -365.218    -321.610
  H      168.883    -363.587    -322.626
  H      172.458    -364.348    -322.871
  H      169.950    -362.877    -323.884
  H      171.341    -361.397    -324.978
  H      173.348    -361.459    -322.918
  H      170.512    -360.362    -322.827
  H      171.753    -359.977    -321.636
  P      173.150    -362.103    -326.772
  C      172.806    -364.579    -327.490
  O      172.416    -363.230    -327.642
  O      174.535    -361.765    -327.216
  O      172.181    -360.832    -326.930
  H      172.513    -360.254    -327.642
  H      172.623    -365.105    -328.427
  H      172.201    -365.048    -326.705
  H      173.866    -364.666    -327.237
  H      168.365    -357.756    -324.894
  H      169.832    -358.466    -325.525
  H      169.723    -356.736    -325.306

 3  4  5  6  7  8  9  10  11  12  13  23  28  29  30  31  32 0
 6-311+G(2d,p)
 ****
 33  34 0
 6-311+G(2d,p)
 ****
 1  2  14  15  16  17  18  19  20  21  22  24  25  26  27 0
 3-21G
 ****
 35  36  37  38  39  40  41  42  43  44  45 0
 3-21G
 ****


