%nproc=1
%NoSave
%Mem=1900MB
#P OB98/GEN NMR

erre ene a

0 1
  C      830.917    -367.983    -361.211
  O      829.882    -368.586    -361.970
  P      830.028    -368.573    -363.569
  C      831.050    -366.746    -365.116
  O      830.275    -367.031    -363.958
  C      830.329    -365.728    -366.012
  O      829.755    -364.685    -365.203
  C      831.238    -365.030    -367.007
  O      831.470    -365.816    -368.176
  C      830.371    -363.816    -367.358
  O      829.352    -364.177    -368.300
  C      829.752    -363.479    -366.005
  N      831.559    -358.687    -366.260
  C      830.948    -359.466    -367.168
  N      830.507    -360.741    -367.025
  C      830.802    -361.210    -365.792
  C      831.464    -360.537    -364.777
  C      831.832    -359.208    -365.030
  N      832.437    -358.403    -364.084
  N      831.565    -361.343    -363.657
  C      830.976    -362.470    -364.009
  N      830.472    -362.444    -365.282
  O      828.539    -368.844    -364.073
  O      831.010    -369.540    -364.129
  H      829.809    -364.503    -369.100
  H      828.557    -369.209    -364.983
  H      830.777    -359.006    -368.145
  H      830.880    -363.339    -363.365
  H      828.707    -363.129    -366.089
  H      830.953    -363.006    -367.811
  H      832.162    -364.691    -366.550
  H      829.519    -366.267    -366.526
  H      831.205    -367.672    -365.682
  H      832.514    -357.420    -364.297
  H      832.448    -358.736    -363.133
  H      832.028    -366.348    -364.804
  P      832.439    -365.178    -369.284
  C      832.315    -363.041    -370.790
  O      831.661    -363.902    -369.842
  O      832.349    -366.234    -370.491
  O      833.829    -364.956    -368.822
  H      833.149    -366.204    -371.031
  H      831.549    -362.434    -371.282
  H      832.835    -363.654    -371.556
  H      833.011    -362.416    -370.263
  H      830.689    -368.065    -360.169
  H      831.000    -366.950    -361.478
  H      831.843    -368.479    -361.413

 3  4  5  6  7  8  9  10  11  12  22  25  29  30  31  32 0
 6-311+G(2d,p)
 ****
 33  36  37 0
 6-311+G(2d,p)
 ****
 1  2  13  14  15  16  17  18  19  20  21  23  24  26 0
 3-21G
 ****
 27  28  34  35  38  39  40  41  42  43  44  45  46  47  48 0
 3-21G
 ****


