%nproc=1
%NoSave
%Mem=1900MB
#P OB98/GEN NMR

erre ene a

0 1
  C     1410.621    -423.844    -107.689
  O     1409.955    -423.233    -108.791
  H     1410.141    -424.799    -107.440
  H     1411.660    -424.030    -107.952
  H     1410.590    -423.174    -106.828
  P     1408.404    -422.869    -108.594
  C     1408.810    -420.317    -108.897
  O     1408.387    -421.360    -108.029
  C     1407.627    -419.366    -109.121
  O     1407.160    -418.834    -107.869
  C     1407.977    -418.128    -109.960
  O     1407.953    -418.411    -111.385
  C     1406.856    -417.185    -109.585
  O     1405.637    -417.578    -110.279
  C     1406.717    -417.466    -108.075
  N     1407.203    -412.641    -106.491
  C     1406.345    -413.196    -107.356
  N     1406.304    -414.512    -107.708
  C     1407.237    -415.202    -107.122
  C     1408.226    -414.764    -106.235
  C     1408.172    -413.395    -105.910
  N     1409.066    -412.792    -105.058
  N     1409.051    -415.806    -105.840
  C     1408.589    -416.851    -106.465
  N     1407.498    -416.552    -107.258
  O     1407.971    -423.732    -107.322
  O     1407.531    -423.107    -109.782
  H     1405.360    -418.432    -109.882
  H     1406.996    -423.853    -107.302
  H     1405.591    -412.547    -107.778
  H     1408.986    -417.853    -106.382
  H     1405.673    -417.391    -107.733
  H     1407.055    -416.149    -109.846
  H     1408.943    -417.693    -109.658
  H     1406.802    -419.909    -109.588
  H     1409.102    -420.752    -109.865
  H     1409.078    -411.778    -105.040
  H     1409.872    -413.332    -104.744
  H     1409.645    -419.779    -108.451
  P     1409.063    -417.655    -112.283
  C     1410.548    -419.754    -112.837
  O     1410.415    -418.496    -112.133
  O     1409.367    -416.332    -111.459
  O     1408.625    -417.389    -113.686
  H     1409.644    -415.605    -112.073
  H     1411.507    -420.181    -112.627
  H     1410.456    -419.585    -113.890
  H     1409.780    -420.426    -112.515

 6  7  8  9  10  11  12  13  14  15  25  28  32  33  34  35 0
 6-311+G(2d,p)
 ****
 36  39  40 0
 6-311+G(2d,p)
 ****
 1  2  3  4  5  16  17  18  19  20  21  22  23  24 0
 3-21G
 ****
 26  27  29  30  31  37  38  41  42  43  44  45  46  47 0
 3-21G
 ****
 48 0
 3-21G
 ****


