%nproc=1
%NoSave
%Mem=1900MB
#P OB98/GEN NMR

erre ene a

0 1
  C       -0.102       0.472      25.032
  O        1.031      -0.260      24.619
  H       -0.959       0.154      24.435
  H        0.065       1.540      24.864
  H       -0.325       0.296      26.086
  P        2.345      -0.230      25.533
  C        3.906       1.590      26.488
  O        2.840       1.294      25.597
  C        4.844       2.642      25.883
  O        5.564       2.048      24.774
  C        4.062       3.833      25.320
  O        4.826       5.036      25.343
  C        3.826       3.426      23.875
  O        3.582       4.536      23.012
  C        5.114       2.670      23.559
  N        6.849       0.775      19.157
  C        7.188       1.952      19.795
  N        8.114       2.724      19.179
  N        6.652       2.347      20.920
  C        5.692       1.513      21.384
  C        5.253       0.332      20.830
  C        5.878      -0.112      19.602
  O        5.600      -1.134      18.984
  N        4.254      -0.233      21.583
  C        4.086       0.604      22.586
  N        4.953       1.667      22.523
  O        3.461      -0.917      24.612
  O        2.226      -0.919      26.859
  H        4.400       5.065      22.980
  H        4.185      -1.266      25.161
  H        7.313       0.504      18.309
  H        3.368       0.481      23.387
  H        5.898       3.362      23.227
  H        2.939       2.789      23.839
  H        8.399       2.552      18.227
  H        3.121       4.001      25.838
  H        8.141       3.708      19.458
  H        5.594       2.946      26.622
  H        4.442       0.655      26.666
  H        3.516       1.928      27.449
  P        4.814       5.924      26.676
  C        3.205       7.721      27.764
  O        3.505       6.837      26.707
  O        6.002       6.967      26.447
  O        4.991       5.143      27.940
  H        6.710       6.825      27.102
  H        2.281       8.220      27.560
  H        3.988       8.444      27.857
  H        3.118       7.169      28.677

 6  7  8  9  10  11  12  13  14  15  26  29  33  34 0
 6-311+G(2d,p)
 ****
 36  38  39  40  41 0
 6-311+G(2d,p)
 ****
 1  2  3  4  5  16  17  18  19  20  21  22  23  24  25 0
 3-21G
 ****
 27  28  30  31  32  35  37  42  43  44  45  46  47 0
 3-21G
 ****
 48  49 0
 3-21G
 ****


