%nproc=1
%NoSave
%Mem=1900MB
#P OB98/GEN NMR

erre ene a

0 1
  C      501.650     153.090    -258.442
  O      502.334     151.969    -258.970
  H      501.001     152.751    -257.628
  H      501.032     153.560    -259.213
  H      502.362     153.817    -258.038
  P      503.310     152.181    -260.223
  C      505.353     150.959    -261.227
  O      504.324     150.931    -260.240
  C      506.342     149.810    -260.987
  O      507.183     150.177    -259.868
  C      505.637     148.485    -260.644
  O      506.051     147.396    -261.476
  C      505.855     148.348    -259.142
  O      505.841     147.020    -258.661
  C      507.178     149.096    -258.918
  N      507.346     149.602    -257.555
  C      508.270     148.950    -256.737
  O      508.975     147.998    -257.082
  N      508.387     149.444    -255.465
  C      507.683     150.487    -254.938
  O      507.832     150.889    -253.786
  C      506.706     151.122    -255.838
  C      506.582     150.655    -257.087
  O      503.960     153.522    -260.320
  O      502.371     151.891    -261.493
  H      505.046     146.575    -259.032
  H      502.110     152.739    -261.904
  H      509.058     148.990    -254.865
  H      506.123     151.947    -255.450
  H      505.873     151.101    -257.780
  H      508.024     148.446    -259.137
  H      505.050     148.886    -258.630
  H      504.560     148.552    -260.844
  H      506.987     149.707    -261.870
  H      505.863     151.925    -261.160
  H      504.907     150.859    -262.224
  P      505.308     146.940    -262.817
  C      505.685     145.014    -264.563
  O      505.895     145.509    -263.247
  O      505.202     147.977    -263.880
  O      503.815     146.592    -262.310
  H      503.212     146.817    -263.050
  H      506.147     144.054    -264.661
  H      506.116     145.690    -265.271
  H      504.635     144.925    -264.747

 6  7  8  9  10  11  12  13  14  15  16  26  31  32  33  34  35 0
 6-311+G(2d,p)
 ****
 36  37 0
 6-311+G(2d,p)
 ****
 1  2  3  4  5  17  18  19  20  21  22  23  24  25 0
 3-21G
 ****
 27  28  29  30  38  39  40  41  42  43  44  45 0
 3-21G
 ****


