%nproc=1
%NoSave
%Mem=1900MB
#P OB98/GEN NMR

erre ene a

0 1
  C      460.348     299.325     620.723
  O      461.677     299.209     620.261
  H      460.368     299.458     621.807
  H      459.794     298.411     620.489
  H      459.849     300.186     620.274
  P      461.963     299.330     618.692
  C      460.732     297.220     617.852
  O      461.987     297.837     618.102
  C      460.912     295.935     617.034
  O      461.378     296.283     615.703
  C      461.975     295.022     617.650
  O      461.746     293.647     617.349
  C      463.252     295.469     616.950
  O      464.271     294.471     616.953
  C      462.728     295.812     615.558
  N      466.855     296.744     612.714
  C      466.493     295.589     613.379
  N      467.343     294.542     613.265
  N      465.415     295.475     614.103
  C      464.694     296.622     614.184
  C      464.958     297.834     613.593
  C      466.142     297.938     612.763
  O      466.519     298.942     612.173
  N      464.004     298.768     613.912
  C      463.170     298.122     614.701
  N      463.527     296.811     614.876
  O      463.507     299.751     618.621
  O      461.090     300.297     617.947
  H      464.405     294.194     617.877
  H      463.700     300.185     617.770
  H      467.682     296.768     612.146
  H      462.285     298.555     615.152
  H      462.699     294.916     614.926
  H      463.647     296.338     617.487
  H      468.275     294.653     612.886
  H      462.060     295.137     618.727
  H      467.264     293.812     613.978
  H      459.948     295.430     616.908
  H      460.126     297.943     617.303
  H      460.218     297.009     618.793
  P      461.083     292.720     618.477
  C      463.451     291.725     619.127
  O      462.081     291.531     618.857
  O      459.889     291.985     617.709
  O      460.601     293.462     619.685
  H      459.029     292.258     618.080
  H      463.906     290.784     619.355
  H      463.560     292.386     619.962
  H      463.927     292.153     618.269

 6  7  8  9  10  11  12  13  14  15  26  29  33  34 0
 6-311+G(2d,p)
 ****
 36  38  39  40  41 0
 6-311+G(2d,p)
 ****
 1  2  3  4  5  16  17  18  19  20  21  22  23  24  25 0
 3-21G
 ****
 27  28  30  31  32  35  37  42  43  44  45  46  47 0
 3-21G
 ****
 48  49 0
 3-21G
 ****


