%nproc=1
%NoSave
%Mem=1900MB
#P OB98/GEN NMR

erre ene a

0 1
  C     -469.078     799.893    -262.583
  O     -469.316     799.228    -263.812
  H     -468.048     799.697    -262.276
  H     -469.756     799.519    -261.816
  H     -469.215     800.967    -262.710
  P     -470.821     799.296    -264.379
  C     -469.764     800.522    -266.433
  O     -470.610     799.483    -265.963
  C     -469.375     800.268    -267.885
  O     -468.798     798.947    -268.035
  C     -470.548     800.308    -268.870
  O     -470.961     801.618    -269.195
  C     -469.908     799.602    -270.058
  O     -468.986     800.503    -270.711
  C     -469.160     798.451    -269.355
  N     -469.977     797.229    -269.243
  C     -470.087     796.443    -270.395
  O     -469.534     796.780    -271.441
  N     -470.866     795.313    -270.345
  C     -471.459     794.972    -269.242
  N     -472.216     793.844    -269.252
  C     -471.353     795.771    -267.997
  C     -470.601     796.865    -268.067
  O     -471.328     800.749    -263.925
  O     -471.723     798.173    -263.989
  H     -469.479     801.335    -270.877
  H     -472.190     800.947    -264.355
  H     -471.866     795.460    -267.106
  H     -470.472     797.493    -267.191
  H     -468.232     798.202    -269.881
  H     -470.625     799.289    -270.817
  H     -471.388     799.702    -268.516
  H     -468.601     800.988    -268.157
  H     -472.316     793.363    -270.138
  H     -468.870     800.541    -265.797
  H     -472.829     793.584    -268.491
  H     -470.272     801.484    -266.358
  P     -472.367     801.781    -269.947
  C     -473.627     802.903    -267.950
  O     -473.117     803.035    -269.286
  O     -473.211     800.526    -269.419
  O     -472.286     801.813    -271.445
  H     -473.805     800.186    -270.120
  H     -474.096     803.818    -267.655
  H     -472.822     802.683    -267.281
  H     -474.344     802.109    -267.919

 6  7  8  9  10  11  12  13  14  15  16  26  30  31  32  33  35 0
 6-311+G(2d,p)
 ****
 37  38 0
 6-311+G(2d,p)
 ****
 1  2  3  4  5  17  18  19  20  21  22  23  24  25 0
 3-21G
 ****
 27  28  29  34  36  39  40  41  42  43  44  45  46 0
 3-21G
 ****


