%nproc=1
%NoSave
%Mem=1900MB
#P OB98/GEN NMR

erre ene a

0 1
  C       59.005     157.797    -234.079
  O       57.681     157.794    -233.537
  P       57.262     159.036    -232.611
  C       56.596     160.603    -234.604
  O       56.185     159.865    -233.463
  C       55.733     161.857    -234.754
  O       56.199     162.667    -235.860
  C       54.268     161.570    -235.049
  O       53.587     161.113    -233.892
  C       53.811     162.928    -235.572
  O       53.544     163.818    -234.477
  C       55.054     163.405    -236.350
  N       54.910     163.273    -237.794
  C       53.823     163.933    -238.359
  O       53.008     164.573    -237.696
  N       53.692     163.815    -239.715
  C       54.506     163.093    -240.539
  O       54.344     163.036    -241.751
  C       55.608     162.379    -239.881
  C       55.761     162.498    -238.557
  O       58.588     159.928    -232.671
  O       56.835     158.627    -231.243
  H       59.034     159.887    -233.536
  H       52.682     163.545    -234.104
  H       52.918     164.298    -240.147
  H       56.261     161.776    -240.499
  H       56.567     161.975    -238.054
  H       55.257     164.460    -236.126
  H       52.897     162.858    -236.168
  H       54.190     160.821    -235.848
  H       55.827     162.445    -233.832
  H       56.496     159.989    -235.504
  H       57.653     160.863    -234.494
  P       52.527     159.923    -234.101
  C       53.614     157.859    -232.921
  O       52.706     158.934    -232.852
  O       53.186     159.129    -235.324
  O       51.133     160.397    -234.351
  H       54.145     159.010    -235.224
  H       53.851     157.531    -231.904
  H       54.542     158.148    -233.422
  H       53.154     157.025    -233.459
  H       59.150     156.918    -234.672
  H       59.717     157.810    -233.281
  H       59.138     158.665    -234.690

 3  4  5  6  7  8  9  10  11  12  13  24  28  29  30  31  32 0
 6-311+G(2d,p)
 ****
 33  34 0
 6-311+G(2d,p)
 ****
 1  2  14  15  16  17  18  19  20  21  22  23  25  26  27 0
 3-21G
 ****
 35  36  37  38  39  40  41  42  43  44  45 0
 3-21G
 ****


