%nproc=1
%NoSave
%Mem=1900MB
#P OB98/GEN NMR

erre ene a

0 1
  C      -53.552      52.862      61.658
  O      -54.709      53.353      61.007
  P      -54.677      53.655      59.435
  C      -54.072      56.179      59.637
  O      -53.681      54.890      59.215
  C      -54.708      56.972      58.488
  O      -55.063      58.281      58.995
  C      -53.786      57.223      57.297
  O      -54.589      57.578      56.170
  C      -53.001      58.428      57.762
  O      -52.400      59.131      56.677
  C      -54.056      59.229      58.567
  N      -53.452      59.897      59.736
  C      -52.453      60.831      59.477
  O      -52.122      61.163      58.340
  N      -51.785      61.310      60.573
  C      -51.992      60.910      61.860
  O      -51.200      61.107      62.774
  C      -53.208      60.113      62.087
  C      -53.861      59.627      61.029
  O      -56.127      54.279      59.165
  O      -54.414      52.467      58.573
  H      -51.820      59.824      57.075
  H      -56.736      53.591      58.838
  H      -50.967      61.875      60.376
  H      -53.494      59.899      63.110
  H      -54.731      58.990      61.167
  H      -54.535      59.997      57.948
  H      -52.193      58.097      58.426
  H      -53.134      56.380      57.049
  H      -55.627      56.472      58.166
  H      -53.199      56.707      60.037
  H      -54.793      56.105      60.461
  P      -54.423      56.714      54.827
  C      -53.145      58.569      53.594
  O      -53.094      57.253      54.108
  O      -55.632      56.615      53.958
  O      -53.967      55.279      55.378
  H      -54.121      54.600      54.695
  H      -52.138      58.994      53.616
  H      -53.812      59.206      54.184
  H      -53.497      58.538      52.559
  H      -53.761      52.721      62.698
  H      -52.754      53.566      61.547
  H      -53.267      51.928      61.221

 3  4  5  6  7  8  9  10  11  12  13  23  28  29  30  31  32 0
 6-311+G(2d,p)
 ****
 33  34 0
 6-311+G(2d,p)
 ****
 1  2  14  15  16  17  18  19  20  21  22  24  25  26  27 0
 3-21G
 ****
 35  36  37  38  39  40  41  42  43  44  45 0
 3-21G
 ****


