%nproc=1
%NoSave
%Mem=1900MB
#P OB98/GEN NMR

erre ene a

0 1
  C     -256.027     419.980     248.131
  O     -256.080     419.311     246.877
  P     -256.496     420.180     245.591
  C     -258.440     418.594     244.927
  O     -258.059     419.893     245.367
  C     -259.847     418.620     244.346
  O     -260.786     419.036     245.354
  C     -260.040     419.591     243.190
  O     -259.579     419.053     241.961
  C     -261.553     419.747     243.186
  O     -262.151     418.642     242.484
  C     -261.896     419.678     244.684
  N     -264.481     422.242     248.204
  C     -264.514     420.899     247.885
  N     -265.332     420.124     248.626
  N     -263.808     420.365     246.923
  C     -263.007     421.252     246.292
  C     -262.885     422.605     246.516
  C     -263.706     423.193     247.550
  O     -263.767     424.386     247.834
  N     -261.953     423.167     245.682
  C     -261.483     422.153     244.982
  N     -262.113     420.976     245.294
  O     -255.800     419.393     244.384
  O     -256.084     421.610     245.633
  H     -263.118     418.707     242.616
  H     -255.641     420.005     243.637
  H     -265.030     422.598     248.965
  H     -260.694     422.230     244.246
  H     -262.782     419.057     244.860
  H     -261.887     420.661     242.686
  H     -265.800     420.453     249.459
  H     -259.571     420.558     243.407
  H     -265.344     419.132     248.432
  H     -260.110     417.601     244.039
  H     -258.417     417.905     245.776
  H     -257.720     418.253     244.177
  P     -259.549     420.053     240.703
  C     -261.193     418.583     239.331
  O     -260.947     419.829     239.957
  O     -258.475     419.384     239.728
  O     -259.202     421.462     241.048
  H     -258.073     420.062     239.150
  H     -260.762     417.755     239.904
  H     -260.768     418.591     238.324
  H     -262.272     418.431     239.260
  H     -255.739     419.287     248.893
  H     -256.991     420.383     248.361
  H     -255.311     420.774     248.082

 3  4  5  6  7  8  9  10  11  12  23  26  30  31  33  0
 6-311+G(2d,p)
 ****
 35  36  37  38 0
 6-311+G(2d,p)
 ****
 1  2  13  14  15  16  17  18  19  20  21  22  24  25  27  28  29 0
 3-21G
 ****
 32  34  39  40  41  42  43  44  45  46  47  48  49 0
 3-21G
 ****


