%nproc=1
%NoSave
%Mem=1900MB
#P OB98/GEN NMR

erre ene a

0 1
  C      400.001     545.120    -207.559
  O      400.880     546.074    -208.127
  P      400.536     547.636    -207.903
  C      400.482     548.306    -210.402
  O      401.152     548.420    -209.160
  C      400.903     549.433    -211.371
  O      400.307     550.676    -210.918
  C      402.419     549.634    -211.452
  O      402.740     549.973    -212.808
  C      402.662     550.853    -210.576
  O      403.862     551.533    -210.945
  C      401.368     551.643    -210.793
  N      401.098     552.586    -209.723
  C      401.180     553.955    -210.039
  O      401.540     554.310    -211.162
  N      400.903     554.881    -209.058
  C      400.686     554.478    -207.842
  N      400.407     555.437    -206.908
  C      400.710     553.053    -207.441
  C      400.905     552.179    -208.425
  O      401.507     548.035    -206.696
  O      399.102     547.906    -207.596
  H      404.569     550.868    -211.096
  H      401.104     548.726    -206.133
  H      400.551     552.779    -206.407
  H      400.922     551.101    -208.226
  H      401.414     552.207    -211.752
  H      402.744     550.547    -209.528
  H      402.998     548.754    -211.155
  H      400.490     549.208    -212.354
  H      400.415     556.401    -207.206
  H      399.406     548.398    -210.250
  H      400.222     555.215    -205.941
  H      400.685     547.326    -210.851
  P      404.175     549.527    -213.372
  C      405.009     551.870    -214.014
  O      404.544     550.623    -214.482
  O      403.783     548.263    -214.283
  O      405.240     549.171    -212.393
  H      404.595     547.851    -214.639
  H      405.359     552.465    -214.866
  H      405.850     551.736    -213.318
  H      404.201     552.413    -213.512
  H      400.350     544.134    -207.786
  H      399.020     545.253    -207.965
  H      399.969     545.252    -206.498

 3  4  5  6  7  8  9  10  11  12  13  21  23  27  28  29  30  32 0
 6-311+G(2d,p)
 ****
 34  35 0
 6-311+G(2d,p)
 ****
 1  2  14  15  16  17  18  19  20  22  24  25  26 0
 3-21G
 ****
 31  33  36  37  38  39  40  41  42  43  44  45  46 0
 3-21G
 ****


