%nproc=1
%NoSave
%Mem=1900MB
#P OB98/GEN NMR

erre ene a

0 1
  C      531.673    -230.677     271.878
  O      530.408    -231.172     271.479
  H      532.146    -231.372     272.577
  H      532.307    -230.581     270.990
  H      531.564    -229.694     272.341
  P      529.333    -231.422     272.642
  C      529.562    -233.997     272.847
  O      529.804    -232.731     273.448
  C      530.193    -235.101     273.696
  O      531.637    -234.991     273.596
  C      529.817    -235.066     275.185
  O      529.207    -236.304     275.573
  C      531.148    -234.938     275.909
  O      531.226    -235.734     277.097
  C      532.163    -235.383     274.867
  N      536.351    -235.584     277.769
  C      535.409    -236.512     277.495
  N      534.380    -236.433     276.632
  C      534.387    -235.250     275.993
  C      535.292    -234.211     276.149
  C      536.301    -234.405     277.105
  N      537.229    -233.434     277.422
  N      534.963    -233.148     275.323
  C      533.859    -233.519     274.710
  N      533.454    -234.774     275.099
  O      528.035    -231.924     271.843
  O      529.028    -230.233     273.491
  H      532.121    -235.611     277.457
  H      527.250    -231.435     272.154
  H      535.493    -237.444     278.051
  H      533.287    -232.910     274.026
  H      532.299    -236.473     274.854
  H      531.300    -233.889     276.191
  H      529.153    -234.231     275.431
  H      529.916    -236.071     273.255
  H      530.006    -234.018     271.847
  H      537.849    -233.615     278.198
  H      537.132    -232.516     277.007
  H      528.485    -234.143     272.754
  P      527.609    -236.297     275.754
  C      527.425    -236.957     278.269
  O      527.299    -235.933     277.285
  O      527.227    -237.850     275.660
  O      526.889    -235.482     274.734
  H      526.315    -237.953     275.337
  H      527.186    -236.557     279.232
  H      528.430    -237.324     278.275
  H      526.754    -237.758     278.038

 6  7  8  9  10  11  12  13  14  15  25  28  32  33  34  35 0
 6-311+G(2d,p)
 ****
 36  39  40 0
 6-311+G(2d,p)
 ****
 1  2  3  4  5  16  17  18  19  20  21  22  23  24 0
 3-21G
 ****
 26  27  29  30  31  37  38  41  42  43  44  45  46  47  48 0
 3-21G
 ****


