%nproc=1
%NoSave
%Mem=1900MB
#P OB98/GEN NMR

erre ene a

0 1
  C     -293.187    -354.921    -419.377
  O     -294.355    -355.541    -418.841
  P     -295.789    -354.848    -418.718
  C     -296.879    -352.992    -417.202
  O     -295.775    -353.854    -417.463
  C     -296.432    -351.753    -416.398
  O     -295.801    -352.210    -415.159
  C     -295.383    -350.903    -417.149
  O     -295.608    -349.498    -417.023
  C     -294.068    -351.450    -416.614
  O     -292.977    -350.549    -416.810
  C     -294.419    -351.781    -415.163
  N     -289.669    -353.167    -413.875
  C     -290.100    -352.049    -414.591
  N     -289.144    -351.216    -415.038
  N     -291.355    -351.814    -414.863
  C     -292.200    -352.773    -414.426
  C     -291.893    -353.918    -413.719
  C     -290.504    -354.153    -413.382
  O     -290.078    -355.113    -412.744
  N     -293.021    -354.648    -413.444
  C     -294.010    -353.967    -413.990
  N     -293.557    -352.812    -414.603
  O     -296.969    -355.763    -418.837
  O     -295.833    -353.846    -419.982
  H     -293.130    -349.768    -416.245
  H     -296.773    -353.798    -420.259
  H     -288.687    -353.283    -413.680
  H     -295.052    -354.239    -413.975
  H     -294.319    -350.924    -414.508
  H     -293.834    -352.360    -417.181
  H     -288.138    -351.407    -414.969
  H     -295.443    -351.092    -418.230
  H     -289.435    -350.530    -415.742
  H     -297.318    -351.171    -416.132
  H     -297.590    -353.577    -416.617
  H     -297.369    -352.699    -418.131
  P     -296.567    -348.560    -417.903
  C     -296.378    -346.920    -419.861
  O     -295.693    -347.826    -419.020
  O     -296.979    -347.367    -416.916
  O     -297.796    -349.251    -418.427
  H     -297.959    -347.369    -416.781
  H     -295.740    -346.693    -420.723
  H     -296.567    -345.996    -419.308
  H     -297.318    -347.340    -420.206
  H     -292.369    -355.609    -419.339
  H     -292.948    -354.052    -418.801
  H     -293.368    -354.637    -420.393

 3  4  5  6  7  8  9  10  11  12  23  26  30  31 0
 6-311+G(2d,p)
 ****
 33  35  36  37  38 0
 6-311+G(2d,p)
 ****
 1  2  13  14  15  16  17  18  19  20  21  22  24  25 0
 3-21G
 ****
 27  28  29  32  34  39  40  41  42  43  44  45  46  47  48  49 0
 3-21G
 ****


