%nproc=1
%NoSave
%Mem=1900MB
#P OB98/GEN NMR

erre ene a

0 1
  C     -303.004    -819.661     358.064
  O     -301.763    -819.236     357.543
  P     -300.800    -820.165     356.679
  C     -298.449    -821.272     356.963
  O     -299.436    -820.405     357.488
  C     -297.146    -821.194     357.760
  O     -296.659    -819.811     357.716
  C     -297.383    -821.504     359.252
  O     -296.364    -822.301     359.840
  C     -297.619    -820.134     359.882
  O     -297.418    -820.082     361.288
  C     -296.686    -819.248     359.029
  N     -296.243    -814.576     361.033
  C     -295.475    -815.702     361.280
  N     -294.615    -815.634     362.320
  N     -295.586    -816.817     360.580
  C     -296.588    -816.792     359.662
  C     -297.399    -815.733     359.343
  C     -297.243    -814.501     360.071
  O     -297.973    -813.503     359.965
  N     -298.309    -816.080     358.381
  C     -298.108    -817.367     358.170
  N     -297.070    -817.851     358.948
  O     -300.706    -819.851     355.216
  O     -301.542    -821.610     356.825
  H     -297.976    -820.748     361.680
  H     -301.394    -822.090     355.963
  H     -296.168    -813.780     361.656
  H     -298.665    -818.004     357.481
  H     -295.674    -819.250     359.433
  H     -298.667    -819.866     359.687
  H     -294.608    -814.853     362.957
  H     -298.295    -822.102     359.381
  H     -294.230    -816.504     362.676
  H     -296.384    -821.842     357.314
  H     -298.268    -820.947     355.919
  H     -298.816    -822.305     356.932
  P     -296.308    -822.945     361.327
  C     -295.076    -822.494     363.523
  O     -295.100    -822.263     362.133
  O     -295.803    -824.450     361.121
  O     -297.632    -822.926     362.056
  H     -296.290    -825.037     361.729
  H     -294.392    -821.754     364.007
  H     -294.701    -823.494     363.731
  H     -296.070    -822.337     363.961
  H     -303.458    -818.857     358.605
  H     -302.849    -820.491     358.722
  H     -303.646    -819.957     357.261

 3  4  5  6  7  8  9  10  11  12  23  26  30  31 0
 6-311+G(2d,p)
 ****
 33  35  36  37  38 0
 6-311+G(2d,p)
 ****
 1  2  13  14  15  16  17  18  19  20  21  22  24  25 0
 3-21G
 ****
 27  28  29  32  34  39  40  41  42  43  44  45  46  47  48  49 0
 3-21G
 ****


