%nproc=1
%NoSave
%Mem=1900MB
#P OB98/GEN NMR

erre ene a

0 1
  C      273.160    -889.800      91.580
  O      274.130    -890.770      91.205
  P      273.831    -892.330      91.352
  C      273.376    -892.280      93.886
  O      274.213    -892.770      92.859
  C      272.697    -893.440      94.626
  O      271.711    -894.060      93.789
  C      273.644    -894.550      95.024
  O      274.475    -894.190      96.117
  C      272.674    -895.690      95.320
  O      272.101    -895.540      96.630
  C      271.602    -895.440      94.235
  N      271.690    -896.390      93.131
  C      271.159    -897.660      93.358
  O      270.733    -897.960      94.463
  N      271.141    -898.560      92.315
  C      271.726    -898.260      91.199
  N      271.646    -899.150      90.187
  C      272.436    -896.980      90.981
  C      272.363    -896.090      91.973
  O      274.384    -893.200      90.290
  O      272.223    -892.410      91.378
  H      271.932    -893.100      90.739
  H      272.856    -895.500      97.263
  H      272.980    -896.810      90.063
  H      272.849    -895.110      91.879
  H      270.585    -895.520      94.672
  H      273.143    -896.680      95.270
  H      274.276    -894.830      94.167
  H      272.193    -893.020      95.503
  H      271.125    -900.000      90.360
  H      272.600    -891.640      93.448
  H      271.766    -898.890      89.215
  H      273.974    -891.680      94.577
  P      276.039    -894.000      95.806
  C      276.646    -896.490      95.342
  O      276.776    -895.390      96.199
  O      276.527    -892.970      96.923
  O      276.351    -893.510      94.428
  H      277.204    -892.370      96.545
  H      277.462    -897.180      95.558
  H      276.737    -896.180      94.288
  H      275.688    -896.960      95.511
  H      273.551    -888.819      91.406
  H      272.927    -889.912      92.618
  H      272.273    -889.939      90.998

 3  4  5  6  7  8  9  10  11  12  13  24  27  28  29  30  32 0
 6-311+G(2d,p)
 ****
 34  35 0
 6-311+G(2d,p)
 ****
 1  2  14  15  16  17  18  19  20  21  22  23  25  26 0
 3-21G
 ****
 31  33  36  37  38  39  40  41  42  43  44  45  46 0
 3-21G
 ****


