%nproc=1
%NoSave
%Mem=1900MB
#P OB98/GEN NMR

erre ene a

0 1
  C     -194.189     481.794    -205.886
  O     -195.073     482.245    -206.892
  H     -194.504     480.801    -205.557
  H     -194.233     482.476    -205.032
  H     -193.163     481.734    -206.261
  P     -194.591     483.481    -207.793
  C     -192.183     484.068    -208.566
  O     -193.175     483.063    -208.429
  C     -191.315     483.797    -209.794
  O     -190.667     482.499    -209.626
  C     -192.092     483.762    -211.120
  O     -191.276     484.334    -212.151
  C     -192.225     482.276    -211.391
  O     -192.429     481.990    -212.773
  C     -190.897     481.766    -210.843
  N     -189.487     477.372    -212.817
  C     -189.145     478.664    -213.166
  N     -188.351     478.820    -214.247
  N     -189.552     479.720    -212.512
  C     -190.323     479.421    -211.440
  C     -190.736     478.190    -210.992
  C     -190.294     477.028    -211.737
  O     -190.579     475.862    -211.491
  N     -191.567     478.313    -209.906
  C     -191.670     479.619    -209.710
  N     -190.935     480.330    -210.618
  O     -194.202     484.582    -206.697
  O     -195.600     483.994    -208.764
  H     -192.559     481.026    -212.869
  H     -194.958     485.181    -206.546
  H     -189.159     476.594    -213.368
  H     -192.272     480.092    -208.948
  H     -190.059     481.959    -211.524
  H     -193.070     481.864    -210.826
  H     -187.973     478.054    -214.785
  H     -193.059     484.278    -211.083
  H     -188.060     479.758    -214.492
  H     -190.517     484.550    -209.832
  H     -191.548     484.073    -207.673
  H     -192.671     485.045    -208.654
  P     -191.726     485.736    -212.780
  C     -192.314     488.120    -211.915
  O     -191.870     486.810    -211.598
  O     -193.246     485.464    -213.215
  O     -190.897     486.173    -213.943
  H     -193.453     485.964    -214.024
  H     -192.355     488.708    -211.022
  H     -193.288     488.070    -212.355
  H     -191.633     488.570    -212.607

 6  7  8  9  10  11  12  13  14  15  26  29  33  34 0
 6-311+G(2d,p)
 ****
 36  38  39  40  41 0
 6-311+G(2d,p)
 ****
 1  2  3  4  5  16  17  18  19  20  21  22  23  24  25 0
 3-21G
 ****
 27  28  30  31  32  35  37  42  43  44  45  46  47 0
 3-21G
 ****
 48  49 0
 3-21G
 ****


