%nproc=1
%NoSave
%Mem=1900MB
#P OB98/GEN NMR

erre ene a

0 1
  C     -470.042     237.203     389.547
  O     -471.458     236.992     389.453
  P     -472.495     237.690     390.458
  C     -473.106     239.719     388.993
  O     -473.569     238.516     389.598
  C     -474.254     240.514     388.358
  O     -474.719     239.869     387.158
  C     -475.478     240.675     389.256
  O     -475.262     241.692     390.216
  C     -476.564     240.981     388.223
  O     -476.518     242.370     387.846
  C     -476.136     240.091     387.047
  N     -480.636     237.857     386.074
  C     -480.229     239.140     385.987
  N     -479.014     239.663     386.269
  C     -478.163     238.691     386.658
  C     -478.435     237.336     386.794
  C     -479.745     236.927     386.484
  N     -480.158     235.616     386.586
  N     -477.324     236.660     387.239
  C     -476.388     237.582     387.345
  N     -476.846     238.826     387.004
  O     -471.854     238.477     391.552
  O     -473.354     236.478     391.058
  H     -475.623     242.543     387.499
  H     -473.674     236.715     391.949
  H     -480.978     239.853     385.649
  H     -475.367     237.402     387.661
  H     -476.302     240.595     386.084
  H     -477.570     240.774     388.593
  H     -475.708     239.726     389.750
  H     -473.859     241.496     388.068
  H     -472.372     239.458     388.223
  H     -481.122     235.403     386.379
  H     -479.514     234.924     386.936
  H     -472.612     240.330     389.759
  P     -476.045     241.656     391.611
  C     -473.906     241.370     392.998
  O     -475.038     242.186     392.735
  O     -476.735     240.371     391.933
  O     -477.097     242.861     391.489
  H     -477.887     242.657     392.020
  H     -474.195     240.542     393.647
  H     -473.148     241.975     393.504
  H     -473.486     240.978     392.067
  H     -469.546     236.643     388.782
  H     -469.696     236.879     390.506
  H     -469.827     238.244     389.423

 3  4  5  6  7  8  9  10  11  12  22  25  29  30  31  32 0
 6-311+G(2d,p)
 ****
 33  36  37 0
 6-311+G(2d,p)
 ****
 1  2  13  14  15  16  17  18  19  20  21  23  24  26 0
 3-21G
 ****
 27  28  34  35  38  39  40  41  42  43  44  45  46  47  48 0
 3-21G
 ****


