%nproc=1
%NoSave
%Mem=1900MB
#P OB98/GEN NMR

erre ene a

0 1
  C      124.803     189.992      44.355
  O      125.327     190.427      43.098
  P      125.644     189.271      42.030
  C      123.540     189.262      40.512
  O      124.896     189.660      40.661
  C      122.970     189.749      39.175
  O      123.205     191.180      39.002
  C      123.580     189.042      37.951
  O      122.531     188.925      36.978
  C      124.629     190.046      37.496
  O      125.088     189.813      36.174
  C      123.863     191.344      37.725
  N      126.514     194.552      34.772
  C      125.780     193.455      34.483
  N      125.104     192.649      35.332
  C      125.237     193.082      36.597
  C      125.954     194.180      37.048
  C      126.617     194.939      36.067
  N      127.384     196.046      36.354
  N      125.870     194.284      38.429
  C      125.177     193.221      38.797
  N      124.705     192.519      37.725
  O      124.814     188.017      42.578
  O      127.099     188.971      41.886
  H      125.222     188.853      36.034
  H      125.398     187.410      43.069
  H      125.731     193.187      33.434
  H      124.987     192.920      39.821
  H      123.084     191.505      36.970
  H      125.498     189.985      38.162
  H      123.978     188.049      38.170
  H      121.882     189.597      39.187
  H      122.938     189.672      41.327
  H      127.825     196.523      35.583
  H      127.495     196.358      37.306
  H      123.474     188.172      40.599
  P      121.496     187.707      37.102
  C      119.974     188.654      38.939
  O      120.115     188.394      37.554
  O      121.982     187.045      38.482
  O      121.448     186.759      35.952
  H      122.071     187.717      39.181
  H      119.036     189.191      39.099
  H      120.804     189.270      39.297
  H      119.940     187.711      39.494
  H      124.631     190.841      44.983
  H      125.505     189.336      44.826
  H      123.881     189.473      44.197

 3  4  5  6  7  8  9  10  11  12  22  25  29  30  31  32 0
 6-311+G(2d,p)
 ****
 33  36  37 0
 6-311+G(2d,p)
 ****
 1  2  13  14  15  16  17  18  19  20  21  23  24  26 0
 3-21G
 ****
 27  28  34  35  38  39  40  41  42  43  44  45  46  47  48 0
 3-21G
 ****


