%nproc=1
%NoSave
%Mem=1900MB
#P OB98/GEN NMR

erre ene a

0 1
  C       82.632     -84.245     -42.028
  O       82.689     -83.377     -40.918
  H       82.591     -83.639     -42.939
  H       81.735     -84.869     -41.988
  H       83.525     -84.876     -42.067
  P       82.563     -83.993     -39.438
  C       80.110     -83.253     -39.306
  O       80.999     -84.363     -39.276
  C       78.751     -83.609     -38.697
  O       78.229     -84.805     -39.337
  C       78.798     -83.872     -37.187
  O       77.724     -83.175     -36.548
  C       78.589     -85.377     -37.077
  O       78.061     -85.758     -35.808
  C       77.689     -85.639     -38.292
  N       77.655     -87.045     -38.684
  C       76.391     -87.637     -38.790
  O       75.379     -86.987     -38.519
  N       76.304     -88.954     -39.156
  C       77.386     -89.641     -39.351
  N       77.232     -90.949     -39.704
  C       78.743     -89.075     -39.207
  C       78.802     -87.779     -38.883
  O       83.121     -83.134     -38.352
  O       83.261     -85.432     -39.540
  H       77.456     -85.045     -35.499
  H       83.510     -85.741     -38.634
  H       79.615     -89.689     -39.370
  H       79.758     -87.274     -38.763
  H       76.659     -85.312     -38.090
  H       79.552     -85.889     -37.211
  H       79.732     -83.564     -36.726
  H       78.044     -82.801     -38.940
  H       76.285     -91.299     -39.794
  H       79.989     -82.928     -40.346
  H       78.001     -91.582     -39.874
  H       80.558     -82.439     -38.723
  P       78.113     -81.798     -35.816
  C       79.153     -83.256     -33.941
  O       79.292     -82.110     -34.771
  O       76.841     -81.508     -34.887
  O       78.380     -80.670     -36.760
  H       76.265     -80.840     -35.305
  H       80.006     -83.338     -33.301
  H       79.080     -84.132     -34.551
  H       78.269     -83.161     -33.346

 6  7  8  9  10  11  12  13  14  15  16  26  30  31  32  33  35 0
 6-311+G(2d,p)
 ****
 37  38 0
 6-311+G(2d,p)
 ****
 1  2  3  4  5  17  18  19  20  21  22  23  24  25 0
 3-21G
 ****
 27  28  29  34  36  39  40  41  42  43  44  45  46 0
 3-21G
 ****


