%nproc=1
%NoSave
%Mem=1900MB
#P OB98/GEN NMR

erre ene a

0 1
  C     -632.696     868.439    -367.260
  O     -632.222     867.243    -366.668
  H     -632.771     868.281    -368.337
  H     -632.005     869.262    -367.066
  H     -633.683     868.678    -366.861
  P     -631.997     867.274    -365.074
  C     -633.278     865.024    -364.988
  O     -633.178     866.353    -364.483
  C     -632.589     864.035    -364.034
  O     -633.118     864.155    -362.720
  C     -632.730     862.573    -364.440
  O     -631.776     862.225    -365.416
  C     -632.460     861.891    -363.109
  O     -631.035     861.810    -362.897
  C     -633.094     862.847    -362.088
  N     -635.910     860.872    -358.289
  C     -634.577     860.912    -358.476
  N     -633.898     861.406    -359.547
  C     -634.739     861.907    -360.462
  C     -636.128     861.913    -360.409
  C     -636.729     861.377    -359.259
  N     -638.093     861.324    -359.053
  N     -636.664     862.499    -361.532
  C     -635.615     862.886    -362.234
  N     -634.429     862.507    -361.644
  O     -631.845     868.621    -364.467
  O     -630.706     866.320    -364.934
  H     -630.670     861.243    -363.610
  H     -630.786     865.553    -365.536
  H     -633.973     860.503    -357.682
  H     -635.658     863.446    -363.173
  H     -632.475     862.950    -361.184
  H     -632.839     860.867    -363.060
  H     -633.754     862.347    -364.761
  H     -631.525     864.331    -363.984
  H     -632.838     864.956    -365.982
  H     -638.436     860.751    -358.303
  H     -638.684     861.589    -359.822
  H     -634.350     864.784    -365.075
  P     -632.030     861.029    -366.456
  C     -633.180     862.577    -368.162
  O     -633.335     861.470    -367.272
  O     -632.081     859.679    -365.834
  O     -630.857     861.177    -367.533
  H     -630.761     860.354    -368.043
  H     -634.112     862.778    -368.647
  H     -632.438     862.343    -368.897
  H     -632.873     863.440    -367.608

 6  7  8  9  10  11  12  13  14  15  25  28  32  33  34  35 0
 6-311+G(2d,p)
 ****
 36  39  40 0
 6-311+G(2d,p)
 ****
 1  2  3  4  5  16  17  18  19  20  21  22  23  24 0
 3-21G
 ****
 26  27  29  30  31  37  38  41  42  43  44  45  46  47 0
 3-21G
 ****
 48 0
 3-21G
 ****


