%nproc=1
%NoSave
%Mem=1900MB
#P OB98/GEN NMR

erre ene a

0 1
  C     -137.620      -2.978    -127.698
  O     -136.652      -3.257    -128.715
  P     -135.632      -4.465    -128.439
  C     -137.563      -6.189    -128.334
  O     -136.321      -5.833    -128.925
  C     -138.274      -7.288    -129.139
  O     -138.765      -6.763    -130.406
  C     -137.374      -8.484    -129.471
  O     -138.195      -9.662    -129.474
  C     -136.931      -8.195    -130.894
  O     -136.464      -9.374    -131.548
  C     -138.215      -7.587    -131.460
  N     -136.043      -7.618    -136.082
  C     -136.129      -8.556    -135.118
  N     -136.708      -8.461    -133.898
  C     -137.276      -7.255    -133.741
  C     -137.263      -6.190    -134.634
  C     -136.606      -6.405    -135.860
  N     -136.500      -5.438    -136.834
  N     -137.915      -5.096    -134.091
  C     -138.303      -5.491    -132.894
  N     -137.968      -6.796    -132.651
  O     -135.635      -4.586    -126.842
  O     -134.250      -4.223    -128.966
  H     -136.044      -9.106    -132.397
  H     -134.790      -4.253    -126.483
  H     -135.663      -9.512    -135.351
  H     -138.821      -4.880    -132.170
  H     -138.958      -8.348    -131.725
  H     -136.118      -7.463    -130.890
  H     -136.527      -8.623    -128.792
  H     -139.143      -7.629    -128.562
  H     -138.217      -5.312    -128.271
  H     -135.984      -5.662    -137.670
  H     -136.874      -4.514    -136.656
  H     -137.387      -6.505    -127.297
  P     -138.200     -10.534    -128.130
  C     -140.381      -9.912    -126.854
  O     -139.741     -10.791    -127.767
  O     -137.710      -9.500    -127.005
  O     -137.334     -11.751    -128.186
  H     -137.297      -9.981    -126.264
  H     -141.396      -9.711    -127.210
  H     -139.846      -8.957    -126.762
  H     -140.434     -10.391    -125.877
  H     -138.233      -2.156    -128.005
  H     -137.118      -2.728    -126.787
  H     -138.233      -3.841    -127.542

 3  4  5  6  7  8  9  10  11  12  22  25  29  30  31  32 0
 6-311+G(2d,p)
 ****
 33  36  37 0
 6-311+G(2d,p)
 ****
 1  2  13  14  15  16  17  18  19  20  21  23  24  26 0
 3-21G
 ****
 27  28  34  35  38  39  40  41  42  43  44  45  46  47  48 0
 3-21G
 ****


