%nproc=1
%NoSave
%Mem=1900MB
#P OB98/GEN NMR

erre ene a

0 1
  C     -209.124       2.714      45.606
  O     -208.593       1.876      44.592
  P     -207.249       1.063      44.901
  C     -204.799       1.750      45.438
  O     -206.021       2.090      44.802
  C     -204.009       3.015      45.786
  O     -204.789       3.835      46.707
  C     -202.652       2.741      46.453
  O     -201.745       3.769      46.024
  C     -202.968       2.926      47.925
  O     -201.815       3.164      48.719
  C     -203.944       4.105      47.845
  N     -204.728       4.276      49.070
  C     -204.253       5.186      50.010
  O     -203.222       5.841      49.870
  N     -204.975       5.277      51.170
  C     -206.048       4.505      51.512
  O     -206.578       4.557      52.615
  C     -206.505       3.560      50.480
  C     -205.837       3.492      49.326
  O     -207.076       0.136      43.605
  O     -207.281       0.262      46.160
  H     -202.058       2.980      49.645
  H     -207.385      -0.769      43.793
  H     -204.654       5.939      51.855
  H     -207.367       2.946      50.709
  H     -206.140       2.789      48.553
  H     -203.400       5.033      47.627
  H     -203.458       2.025      48.309
  H     -202.242       1.752      46.226
  H     -203.870       3.603      44.865
  H     -204.205       1.130      44.767
  H     -205.005       1.167      46.345
  P     -200.188       3.388      45.888
  C     -198.369       2.652      47.614
  O     -199.608       3.283      47.376
  O     -199.590       4.769      45.335
  O     -199.932       2.222      44.987
  H     -199.953       5.545      45.794
  H     -197.667       2.815      46.789
  H     -198.525       1.580      47.742
  H     -197.932       3.058      48.531
  H     -210.016       3.185      45.249
  H     -208.404       3.463      45.863
  H     -209.352       2.127      46.471

 3  4  5  6  7  8  9  10  11  12  13  23  28  29  30  31  32 0
 6-311+G(2d,p)
 ****
 33  34 0
 6-311+G(2d,p)
 ****
 1  2  14  15  16  17  18  19  20  21  22  24  25  26 0
 3-21G
 ****
 27  35  36  37  38  39  40  41  42  43  44  45 0
 3-21G
 ****


