%nproc=1
%NoSave
%Mem=1900MB
#P OB98/GEN NMR

erre ene a

0 1
  C      610.904     247.626    -243.367
  O      610.195     246.750    -242.499
  P      611.045     245.934    -241.410
  C      610.316     244.407    -239.441
  O      609.998     245.522    -240.264
  C      609.504     244.441    -238.145
  O      609.902     245.567    -237.356
  C      608.006     244.597    -238.358
  O      607.380     243.366    -238.681
  C      607.567     245.084    -236.984
  O      607.430     243.960    -236.088
  C      608.756     245.962    -236.554
  N      607.145     250.260    -234.399
  C      607.256     248.980    -233.865
  N      606.910     248.838    -232.571
  N      607.657     247.948    -234.551
  C      608.010     248.248    -235.822
  C      607.942     249.465    -236.461
  C      607.447     250.597    -235.715
  O      607.266     251.730    -236.149
  N      608.402     249.375    -237.756
  C      608.783     248.117    -237.882
  N      608.531     247.382    -236.748
  O      611.922     247.082    -240.708
  O      611.897     244.836    -241.954
  H      606.823     243.329    -236.526
  H      612.741     246.690    -240.328
  H      606.847     251.022    -233.829
  H      609.231     247.699    -238.771
  H      609.018     245.794    -235.505
  H      606.605     245.598    -236.998
  H      606.707     249.629    -231.965
  H      607.785     245.368    -239.113
  H      607.012     247.921    -232.153
  H      609.727     243.523    -237.584
  H      611.388     244.442    -239.188
  H      610.122     243.482    -239.997
  P      605.871     243.436    -239.224
  C      604.674     242.224    -241.192
  O      605.891     242.706    -240.651
  O      605.686     244.986    -239.588
  O      604.843     242.950    -238.247
  H      604.744     245.233    -239.533
  H      603.843     242.891    -240.959
  H      604.466     241.229    -240.799
  H      604.776     242.156    -242.281
  H      610.216     248.100    -244.035
  H      611.621     247.066    -243.931
  H      611.409     248.371    -242.788

 3  4  5  6  7  8  9  10  11  12  23  26  30  31  33  0
 6-311+G(2d,p)
 ****
 35  36  37  38 0
 6-311+G(2d,p)
 ****
 1  2  13  14  15  16  17  18  19  20  21  22  24  25  27  28  29 0
 3-21G
 ****
 32  34  39  40  41  42  43  44  45  46  47  48  49 0
 3-21G
 ****


