%nproc=1
%NoSave
%Mem=1900MB
#P OB98/GEN NMR

erre ene a

0 1
  C      -97.439     228.083    -220.774
  O      -98.677     228.623    -220.357
  H      -97.620     227.115    -221.245
  H      -96.781     227.935    -219.916
  H      -96.954     228.741    -221.504
  P      -98.710     230.106    -219.752
  C      -98.429     229.188    -217.358
  O      -97.913     230.058    -218.360
  C      -98.304     229.844    -215.987
  O      -96.940     229.753    -215.508
  C      -98.649     231.331    -215.979
  O     -100.050     231.524    -216.041
  C      -97.997     231.760    -214.676
  O      -98.812     231.411    -213.546
  C      -96.696     230.919    -214.686
  N      -95.535     231.670    -215.168
  C      -94.819     232.375    -214.207
  O      -95.119     232.384    -213.015
  N      -93.758     233.106    -214.672
  C      -93.416     233.271    -215.987
  O      -92.604     234.107    -216.374
  C      -94.164     232.448    -216.948
  C      -95.183     231.706    -216.505
  O     -100.056     230.751    -219.687
  O      -97.713     230.924    -220.706
  H      -98.235     231.443    -221.349
  H      -98.365     231.777    -212.757
  H      -93.258     233.660    -213.991
  H      -93.880     232.500    -217.992
  H      -95.768     231.114    -217.199
  H      -96.467     230.551    -213.675
  H      -97.832     232.839    -214.626
  H      -98.147     231.837    -216.810
  H      -98.944     229.293    -215.284
  H      -97.847     228.259    -217.371
  H      -99.476     228.957    -217.587
  P     -100.684     232.708    -216.915
  C     -100.374     234.505    -215.112
  O     -100.029     234.087    -216.428
  O     -102.176     232.717    -216.980
  O     -100.051     232.505    -218.375
  H     -100.772     232.468    -219.032
  H      -99.885     235.431    -214.892
  H     -100.063     233.761    -214.408
  H     -101.434     234.637    -215.046

 6  7  8  9  10  11  12  13  14  15  16  27  31  32  33  34  35 0
 6-311+G(2d,p)
 ****
 36  37 0
 6-311+G(2d,p)
 ****
 1  2  3  4  5  17  18  19  20  21  22  23  24  25 0
 3-21G
 ****
 26  28  29  30  38  39  40  41  42  43  44  45 0
 3-21G
 ****


