%nproc=1
%NoSave
%Mem=1900MB
#P OB98/GEN NMR

erre ene a

0 1
  C     -636.251    -533.905     503.377
  O     -635.823    -532.573     503.071
  P     -636.787    -531.742     502.074
  C     -636.914    -531.369     499.497
  O     -636.428    -532.184     500.569
  C     -636.317    -531.786     498.150
  O     -634.879    -531.561     498.177
  C     -636.529    -533.255     497.760
  O     -636.758    -533.331     496.351
  C     -635.203    -533.894     498.053
  O     -635.004    -535.104     497.317
  C     -634.250    -532.757     497.681
  N     -629.340    -533.385     496.572
  C     -630.417    -533.142     495.742
  N     -630.144    -533.084     494.416
  N     -631.643    -532.973     496.156
  C     -631.755    -533.033     497.504
  C     -630.785    -533.257     498.447
  C     -629.433    -533.482     497.963
  O     -628.450    -533.768     498.664
  N     -631.295    -533.243     499.726
  C     -632.586    -533.012     499.555
  N     -632.919    -532.886     498.226
  O     -636.211    -530.248     502.183
  O     -638.233    -531.807     502.432
  H     -634.191    -535.523     497.676
  H     -636.921    -529.642     502.448
  H     -628.423    -533.539     496.207
  H     -633.320    -532.960     500.342
  H     -634.162    -532.660     496.590
  H     -635.126    -534.140     499.129
  H     -629.205    -533.136     494.035
  H     -637.361    -533.745     498.289
  H     -630.904    -532.862     493.779
  H     -636.730    -531.124     497.377
  H     -636.673    -530.324     499.702
  H     -638.006    -531.448     499.465
  P     -638.274    -533.594     495.871
  C     -639.716    -535.751     495.668
  O     -638.586    -535.118     496.248
  O     -638.156    -533.622     494.279
  O     -639.250    -532.574     496.351
  H     -638.998    -533.353     493.861
  H     -640.147    -535.162     494.852
  H     -640.474    -535.902     496.450
  H     -639.414    -536.724     495.286
  H     -635.547    -534.363     504.040
  H     -636.314    -534.476     502.474
  H     -637.212    -533.872     503.846

 3  4  5  6  7  8  9  10  11  12  23  26  30  31  33  0
 6-311+G(2d,p)
 ****
 35  36  37  38 0
 6-311+G(2d,p)
 ****
 1  2  13  14  15  16  17  18  19  20  21  22  24  25  27  28  29 0
 3-21G
 ****
 32  34  39  40  41  42  43  44  45  46  47  48  49 0
 3-21G
 ****


