%nproc=1
%NoSave
%Mem=1900MB
#P OB98/GEN NMR

erre ene a

0 1
  C     -941.817     966.443     234.700
  O     -943.135     965.887     234.522
  P     -943.554     965.442     233.045
  C     -944.858     967.675     232.778
  O     -943.966     966.735     232.193
  C     -944.886     968.965     231.963
  O     -945.441     968.765     230.648
  C     -945.739     970.074     232.582
  O     -945.011     970.763     233.594
  C     -945.962     970.979     231.394
  O     -944.802     971.797     231.165
  C     -946.124     969.974     230.249
  N     -950.383     971.473     227.800
  C     -949.156     972.038     227.922
  N     -948.088     971.600     228.613
  C     -948.361     970.411     229.190
  C     -949.543     969.705     229.141
  C     -950.601     970.286     228.408
  N     -951.836     969.698     228.287
  N     -949.458     968.536     229.874
  C     -948.221     968.530     230.337
  N     -947.518     969.642     229.950
  O     -944.942     964.691     233.273
  O     -942.558     964.531     232.381
  H     -944.044     971.191     231.042
  H     -945.042     963.950     232.643
  H     -949.024     972.998     227.405
  H     -947.783     967.746     230.929
  H     -945.669     970.323     229.305
  H     -946.809     971.659     231.528
  H     -946.688     969.677     232.950
  H     -943.854     969.317     231.837
  H     -944.566     967.885     233.807
  H     -952.542     970.154     227.717
  H     -952.014     968.795     228.725
  H     -945.857     967.226     232.834
  P     -945.382     970.435     235.122
  C     -946.941     972.484     235.457
  O     -946.815     971.081     235.371
  O     -944.375     971.381     235.948
  O     -945.233     968.997     235.487
  H     -944.149     970.959     236.810
  H     -947.983     972.770     235.317
  H     -946.338     972.983     234.693
  H     -946.606     972.815     236.459
  H     -941.672     966.695     235.730
  H     -941.717     967.323     234.100
  H     -941.083     965.723     234.402

 3  4  5  6  7  8  9  10  11  12  22  25  29  30  31  32 0
 6-311+G(2d,p)
 ****
 33  36  37 0
 6-311+G(2d,p)
 ****
 1  2  13  14  15  16  17  18  19  20  21  23  24  26 0
 3-21G
 ****
 27  28  34  35  38  39  40  41  42  43  44  45  46  47  48 0
 3-21G
 ****


