%nproc=1
%NoSave
%Mem=1900MB
#P OB98/GEN NMR

erre ene a

0 1
  C      173.305    -900.383      14.144
  O      174.210    -899.460      13.571
  H      172.301    -899.955      14.112
  H      173.576    -900.570      15.185
  H      173.307    -901.321      13.582
  P      175.711    -899.974      13.331
  C      176.755    -898.103      14.797
  O      176.569    -899.494      14.602
  C      177.497    -897.847      16.108
  O      176.651    -898.183      17.232
  C      178.775    -898.664      16.277
  O      179.876    -898.065      15.603
  C      178.943    -898.605      17.780
  O      179.474    -897.319      18.162
  C      177.495    -898.748      18.270
  N      178.513    -902.966      20.892
  C      179.172    -901.746      20.880
  N      180.262    -901.641      21.669
  N      178.800    -900.732      20.153
  C      177.703    -900.982      19.405
  C      176.961    -902.139      19.333
  C      177.374    -903.260      20.149
  O      176.819    -904.353      20.217
  N      175.912    -902.017      18.464
  C      176.017    -900.785      18.000
  N      177.094    -900.121      18.528
  O      176.247    -899.024      12.153
  O      175.843    -901.415      12.966
  H      178.916    -896.649      17.736
  H      176.837    -899.546      11.572
  H      178.851    -903.730      21.460
  H      175.347    -900.335      17.278
  H      177.308    -898.181      19.195
  H      179.640    -899.357      18.165
  H      180.631    -902.408      22.216
  H      178.628    -899.706      15.968
  H      180.737    -900.758      21.698
  H      177.716    -896.777      16.167
  H      175.780    -897.608      14.830
  H      177.328    -897.704      13.952
  P      181.326    -898.720      15.834
  C      182.407    -896.579      16.836
  O      181.974    -897.918      17.064
  O      182.158    -898.187      14.576
  O      181.342    -900.209      15.935
  H      182.903    -898.783      14.398
  H      182.814    -896.177      17.740
  H      181.575    -895.983      16.523
  H      183.157    -896.572      16.073

 6  7  8  9  10  11  12  13  14  15  26  29  33  34 0
 6-311+G(2d,p)
 ****
 36  38  39  40  41 0
 6-311+G(2d,p)
 ****
 1  2  3  4  5  16  17  18  19  20  21  22  23  24  25 0
 3-21G
 ****
 27  28  30  31  32  35  37  42  43  44  45  46  47 0
 3-21G
 ****
 48  49 0
 3-21G
 ****


