%nproc=1
%NoSave
%Mem=1900MB
#P OB98/GEN NMR

erre ene a

0 1
  C      -47.519    -182.594    -118.637
  O      -48.220    -183.192    -117.561
  P      -48.226    -184.792    -117.446
  C      -46.096    -184.656    -115.914
  O      -46.736    -185.226    -117.040
  C      -45.953    -185.700    -114.801
  O      -45.078    -186.767    -115.263
  C      -45.361    -185.155    -113.492
  O      -45.998    -185.858    -112.417
  C      -43.898    -185.549    -113.596
  O      -43.254    -185.599    -112.331
  C      -44.018    -186.906    -114.298
  N      -42.780    -187.331    -114.955
  C      -41.782    -187.891    -114.162
  O      -41.872    -188.033    -112.945
  N      -40.641    -188.270    -114.823
  C      -40.380    -188.087    -116.149
  O      -39.333    -188.429    -116.685
  C      -41.449    -187.446    -116.926
  C      -42.583    -187.112    -116.306
  O      -48.351    -185.211    -118.982
  O      -49.296    -185.325    -116.557
  H      -47.871    -184.614    -119.582
  H      -43.321    -184.715    -111.924
  H      -39.921    -188.716    -114.274
  H      -41.274    -187.269    -117.979
  H      -43.386    -186.638    -116.857
  H      -44.334    -187.674    -113.583
  H      -43.370    -184.820    -114.220
  H      -45.516    -184.079    -113.379
  H      -46.938    -186.146    -114.619
  H      -46.691    -183.819    -115.542
  H      -45.116    -184.267    -116.212
  P      -46.120    -185.115    -110.993
  C      -48.640    -184.563    -111.430
  O      -47.353    -184.101    -111.087
  O      -44.848    -184.139    -111.075
  O      -46.079    -186.020    -109.806
  H      -44.799    -183.651    -111.912
  H      -49.379    -183.819    -111.118
  H      -48.870    -185.512    -110.936
  H      -48.707    -184.692    -112.516
  H      -47.609    -181.530    -118.574
  H      -47.932    -182.933    -119.564
  H      -46.486    -182.868    -118.586

 3  4  5  6  7  8  9  10  11  12  13  24  28  29  30  31  32 0
 6-311+G(2d,p)
 ****
 33  34 0
 6-311+G(2d,p)
 ****
 1  2  14  15  16  17  18  19  20  21  22  23  25  26  27 0
 3-21G
 ****
 35  36  37  38  39  40  41  42  43  44  45 0
 3-21G
 ****


