%nproc=1
%NoSave
%Mem=1900MB
#P OB98/GEN NMR

erre ene a

0 1
  C      -62.699      -5.205      10.000
  O      -61.347      -5.527      10.336
  P      -60.283      -5.454       9.137
  C      -59.331      -7.084       7.357
  O      -60.290      -6.869       8.381
  C      -59.312      -8.554       6.933
  O      -58.771      -9.412       7.955
  C      -60.693      -9.108       6.612
  O      -61.087      -8.707       5.312
  C      -60.462     -10.609       6.732
  O      -59.917     -11.154       5.513
  C      -59.431     -10.701       7.869
  N      -62.106     -14.132      10.470
  C      -61.871     -14.037       9.112
  N      -62.404     -15.007       8.340
  N      -61.174     -13.077       8.562
  C      -60.700     -12.176       9.454
  C      -60.842     -12.180      10.823
  C      -61.618     -13.246      11.419
  O      -61.836     -13.386      12.617
  N      -60.165     -11.135      11.400
  C      -59.726     -10.434      10.369
  N      -59.968     -11.057       9.170
  O      -58.874      -5.426       9.896
  O      -60.457      -4.259       8.259
  H      -59.781     -12.112       5.627
  H      -58.465      -4.545       9.803
  H      -62.657     -14.888      10.839
  H      -59.208      -9.489      10.440
  H      -58.655     -11.444       7.647
  H      -61.392     -11.150       6.922
  H      -62.949     -15.777       8.698
  H      -61.417      -8.778       7.367
  H      -62.237     -14.960       7.342
  H      -58.666      -8.633       6.049
  H      -58.340      -6.787       7.704
  H      -59.573      -6.437       6.506
  P      -62.129      -7.496       5.184
  C      -64.692      -7.214       5.476
  O      -63.559      -8.042       5.650
  O      -62.283      -7.314       3.600
  O      -61.685      -6.226       5.831
  H      -62.257      -6.365       3.377
  H      -65.571      -7.848       5.331
  H      -64.583      -6.553       4.613
  H      -64.836      -6.610       6.377
  H      -63.313      -5.287      10.873
  H      -63.051      -5.883       9.251
  H      -62.745      -4.204       9.625

 3  4  5  6  7  8  9  10  11  12  23  26  30  31 0
 6-311+G(2d,p)
 ****
 33  35  36  37  38 0
 6-311+G(2d,p)
 ****
 1  2  13  14  15  16  17  18  19  20  21  22  24  25 0
 3-21G
 ****
 27  28  29  32  34  39  40  41  42  43  44  45  46  47  48  49 0
 3-21G
 ****


