%nproc=1
%NoSave
%Mem=1900MB
#P OB98/GEN NMR

erre ene a

0 1
  C       47.019     168.605     -54.163
  O       46.105     169.407     -54.907
  P       44.952     168.834     -55.850
  C       44.613     170.821     -57.527
  O       44.118     170.072     -56.426
  C       43.919     172.184     -57.691
  O       42.496     171.981     -57.891
  C       44.062     173.017     -56.416
  O       45.236     173.774     -56.190
  C       42.776     173.827     -56.340
  O       42.912     175.125     -56.921
  C       41.781     172.986     -57.141
  N       36.845     171.810     -56.494
  C       37.443     172.537     -57.503
  N       36.621     173.065     -58.435
  N       38.730     172.744     -57.579
  C       39.426     172.238     -56.537
  C       38.943     171.517     -55.471
  C       37.523     171.241     -55.424
  O       36.943     170.593     -54.560
  N       39.945     171.184     -54.594
  C       41.027     171.725     -55.118
  N       40.764     172.371     -56.304
  O       44.170     167.694     -55.291
  O       45.761     168.288     -57.134
  H       43.314     175.711     -56.255
  H       45.263     167.514     -57.467
  H       35.851     171.660     -56.496
  H       42.018     171.674     -54.685
  H       41.247     173.599     -57.877
  H       42.482     173.985     -55.294
  H       35.616     173.043     -58.367
  H       44.017     172.317     -55.571
  H       37.027     173.775     -59.049
  H       44.277     172.698     -58.586
  H       44.467     170.207     -58.420
  H       45.690     170.968     -57.424
  P       46.581     173.250     -55.497
  C       47.896     174.905     -54.049
  O       47.584     174.491     -55.367
  O       47.276     172.358     -56.629
  O       46.382     172.463     -54.245
  H       47.962     171.786     -56.239
  H       48.315     175.913     -54.083
  H       48.637     174.225     -53.618
  H       47.000     174.914     -53.419
  H       47.686     169.238     -53.617
  H       47.581     167.989     -54.834
  H       46.476     167.985     -53.480

 3  4  5  6  7  8  9  10  11  12  23  26  30  31 0
 6-311+G(2d,p)
 ****
 33  35  36  37  38 0
 6-311+G(2d,p)
 ****
 1  2  13  14  15  16  17  18  19  20  21  22  24  25 0
 3-21G
 ****
 27  28  29  32  34  39  40  41  42  43  44  45  46  47  48  49 0
 3-21G
 ****


