%nproc=1
%NoSave
%Mem=1900MB
#P OB98/GEN NMR

erre ene a

0 1
  C     -238.509    -901.970    -538.711
  O     -239.197    -902.118    -537.482
  P     -239.555    -903.615    -537.017
  C     -239.060    -903.197    -534.495
  O     -238.712    -903.885    -535.683
  C     -237.802    -902.943    -533.654
  O     -236.881    -902.090    -534.369
  C     -238.063    -902.263    -532.312
  O     -238.485    -903.207    -531.345
  C     -236.706    -901.637    -532.014
  O     -235.802    -902.614    -531.461
  C     -236.244    -901.197    -533.418
  N     -234.380    -896.863    -535.248
  C     -233.737    -898.041    -534.904
  N     -232.403    -898.073    -535.122
  N     -234.332    -899.085    -534.397
  C     -235.662    -898.894    -534.218
  C     -236.420    -897.777    -534.504
  C     -235.754    -896.653    -535.115
  O     -236.298    -895.632    -535.529
  N     -237.737    -897.964    -534.167
  C     -237.784    -899.200    -533.709
  N     -236.556    -899.817    -533.737
  O     -238.831    -904.523    -538.117
  O     -241.018    -903.911    -536.895
  H     -236.236    -903.075    -530.729
  H     -239.476    -904.807    -538.804
  H     -233.872    -896.103    -535.655
  H     -238.678    -899.700    -533.368
  H     -235.163    -901.317    -533.546
  H     -236.772    -900.833    -531.291
  H     -231.866    -897.299    -535.486
  H     -238.808    -901.470    -532.435
  H     -231.906    -898.920    -534.881
  H     -237.299    -903.909    -533.499
  H     -239.763    -903.812    -533.909
  H     -239.547    -902.245    -534.742
  P     -240.007    -903.133    -530.847
  C     -240.725    -905.624    -531.074
  O     -240.809    -904.306    -531.589
  O     -240.560    -901.796    -531.541
  O     -240.174    -903.084    -529.366
  H     -241.182    -901.350    -530.936
  H     -241.639    -906.152    -531.309
  H     -240.577    -905.617    -529.991
  H     -239.884    -906.141    -531.554
  H     -238.335    -900.931    -538.899
  H     -239.100    -902.382    -539.502
  H     -237.573    -902.485    -538.660

 3  4  5  6  7  8  9  10  11  12  23  26  30  31 0
 6-311+G(2d,p)
 ****
 33  35  36  37  38 0
 6-311+G(2d,p)
 ****
 1  2  13  14  15  16  17  18  19  20  21  22  24  25 0
 3-21G
 ****
 27  28  29  32  34  39  40  41  42  43  44  45  46  47  48  49 0
 3-21G
 ****


