%nproc=1
%NoSave
%Mem=1900MB
#P OB98/GEN NMR

erre ene a

0 1
  C     -896.080    -897.463    -851.674
  O     -895.570    -897.143    -852.945
  H     -897.150    -897.673    -851.768
  H     -895.960    -896.613    -850.983
  H     -895.580    -898.343    -851.267
  P     -893.960    -896.963    -853.055
  C     -893.530    -898.093    -855.380
  O     -893.640    -896.903    -854.623
  C     -893.920    -897.863    -856.852
  O     -895.310    -897.493    -856.900
  C     -893.100    -896.733    -857.513
  O     -892.900    -897.083    -858.875
  C     -894.040    -895.523    -857.431
  O     -893.750    -894.553    -858.415
  C     -895.420    -896.203    -857.587
  N     -896.500    -895.403    -857.060
  C     -897.280    -894.663    -857.998
  O     -896.980    -894.703    -859.211
  N     -898.280    -893.863    -857.561
  C     -898.500    -893.773    -856.274
  N     -899.500    -892.933    -855.903
  C     -897.700    -894.483    -855.249
  C     -896.750    -895.293    -855.718
  O     -893.440    -898.393    -852.604
  O     -893.420    -895.813    -852.250
  H     -894.290    -893.723    -858.221
  H     -893.940    -899.133    -853.015
  H     -897.910    -894.333    -854.188
  H     -896.130    -895.853    -855.040
  H     -895.630    -896.433    -858.661
  H     -893.990    -895.053    -856.462
  H     -892.140    -896.533    -857.017
  H     -893.810    -898.803    -857.399
  H     -900.000    -892.443    -856.616
  H     -894.150    -898.883    -854.969
  H     -899.720    -892.723    -854.935
  H     -892.480    -898.433    -855.329
  P     -891.400    -897.223    -859.444
  C     -891.790    -899.493    -860.663
  O     -891.400    -898.123    -860.769
  O     -890.360    -897.593    -858.454
  O     -891.110    -895.753    -860.025
  H     -890.190    -895.513    -859.805
  H     -891.738    -899.954    -861.627
  H     -892.793    -899.551    -860.294
  H     -891.132    -900.000    -859.989

 6  7  8  9  10  11  12  13  14  15  16  26  30  31  32  33  35 0
 6-311+G(2d,p)
 ****
 37  38 0
 6-311+G(2d,p)
 ****
 1  2  3  4  5  17  18  19  20  21  22  23  24  25 0
 3-21G
 ****
 27  28  29  34  36  39  40  41  42  43  44  45  46 0
 3-21G
 ****


