%nproc=1
%NoSave
%Mem=1900MB
#P OB98/GEN NMR

erre ene a

0 1
  C      -15.619     152.736       2.192
  O      -16.932     153.204       1.861
  P      -17.505     154.405       2.766
  C      -18.995     155.296       0.833
  O      -18.938     154.831       2.176
  C      -18.997     154.140      -0.171
  O      -20.140     153.288       0.086
  C      -19.075     154.566      -1.641
  O      -18.267     153.672      -2.421
  C      -20.524     154.303      -2.006
  O      -20.704     154.133      -3.409
  C      -20.796     153.054      -1.171
  N      -25.141     151.695      -3.371
  C      -23.861     151.718      -3.887
  N      -23.725     151.349      -5.178
  N      -22.808     152.071      -3.198
  C      -23.090     152.385      -1.910
  C      -24.314     152.390      -1.279
  C      -25.475     152.037      -2.066
  O      -26.642     152.047      -1.682
  N      -24.199     152.768       0.037
  C      -22.911     152.998       0.197
  N      -22.199     152.787      -0.956
  O      -16.549     155.631       2.390
  O      -17.477     154.120       4.230
  H      -20.368     154.940      -3.842
  H      -16.133     155.988       3.198
  H      -25.919     151.433      -3.950
  H      -22.447     153.340       1.111
  H      -20.346     152.164      -1.627
  H      -21.140     155.150      -1.681
  H      -24.483     151.003      -5.746
  H      -18.774     155.601      -1.830
  H      -22.788     151.316      -5.561
  H      -18.098     153.535       0.002
  H      -18.132     155.939       0.637
  H      -19.898     155.903       0.711
  P      -17.040     154.331      -3.219
  C      -15.337     152.378      -2.995
  O      -16.212     153.106      -3.834
  O      -16.094     154.880      -2.052
  O      -17.440     155.401      -4.179
  H      -15.567     155.637      -2.372
  H      -15.476     152.625      -1.940
  H      -14.305     152.602      -3.278
  H      -15.521     151.310      -3.134
  H      -15.345     151.943       1.528
  H      -15.612     152.376       3.200
  H      -14.919     153.539       2.095

 3  4  5  6  7  8  9  10  11  12  23  26  30  31  33  0
 6-311+G(2d,p)
 ****
 35  36  37  38 0
 6-311+G(2d,p)
 ****
 1  2  13  14  15  16  17  18  19  20  21  22  24  25  27  28  29 0
 3-21G
 ****
 32  34  39  40  41  42  43  44  45  46  47  48  49 0
 3-21G
 ****


