%nproc=1
%NoSave
%Mem=1900MB
#P OB98/GEN NMR

erre ene a

0 1
  C      269.110     680.717    -284.208
  O      269.037     681.171    -282.870
  H      269.251     681.581    -284.861
  H      268.183     680.210    -284.485
  H      269.959     680.039    -284.332
  P      268.803     680.047    -281.747
  C      266.229     679.752    -281.840
  O      267.337     680.310    -281.150
  C      265.001     679.720    -280.939
  O      265.155     678.736    -279.894
  C      264.690     681.046    -280.245
  O      263.974     681.913    -281.107
  C      263.862     680.574    -279.060
  O      262.490     680.327    -279.436
  C      264.565     679.263    -278.675
  N      265.416     680.628    -273.887
  C      264.228     680.529    -274.591
  N      263.106     680.903    -273.931
  N      264.150     680.116    -275.828
  C      265.354     679.814    -276.368
  C      266.596     679.854    -275.769
  C      266.664     680.286    -274.389
  O      267.669     680.337    -273.692
  N      267.575     679.453    -276.634
  C      266.941     679.206    -277.762
  N      265.590     679.424    -277.656
  O      269.774     680.506    -280.555
  O      269.084     678.646    -282.175
  H      262.120     681.137    -279.831
  H      270.080     679.714    -280.075
  H      265.404     680.943    -272.930
  H      267.410     678.865    -278.674
  H      263.862     678.514    -278.300
  H      263.839     681.319    -278.263
  H      263.138     681.524    -273.137
  H      265.615     681.517    -279.881
  H      262.236     680.852    -274.449
  H      264.151     679.405    -281.556
  H      266.476     678.731    -282.146
  H      266.025     680.350    -282.734
  P      264.645     683.332    -281.461
  C      264.482     684.343    -279.068
  O      264.041     684.394    -280.422
  O      263.949     683.731    -282.841
  O      266.128     683.302    -281.575
  H      264.461     684.425    -283.289
  H      263.992     685.109    -278.504
  H      265.540     684.495    -279.032
  H      264.245     683.386    -278.651

 6  7  8  9  10  11  12  13  14  15  26  29  33  34 0
 6-311+G(2d,p)
 ****
 36  38  39  40  41 0
 6-311+G(2d,p)
 ****
 1  2  3  4  5  16  17  18  19  20  21  22  23  24  25 0
 3-21G
 ****
 27  28  30  31  32  35  37  42  43  44  45  46  47 0
 3-21G
 ****
 48  49 0
 3-21G
 ****


