%nproc=1
%NoSave
%Mem=1900MB
#P OB98/GEN NMR

erre ene a

0 1
  C     -124.514     -49.511    -131.627
  O     -123.177     -49.966    -131.635
  H     -125.179     -50.373    -131.541
  H     -124.737     -48.990    -132.561
  H     -124.689     -48.844    -130.777
  P     -122.018     -48.857    -131.594
  C     -120.492     -49.884    -129.763
  O     -120.674     -49.613    -131.144
  C     -119.196     -50.668    -129.538
  O     -119.398     -52.033    -129.980
  C     -117.996     -50.098    -130.298
  O     -116.834     -50.219    -129.470
  C     -117.859     -51.018    -131.497
  O     -116.533     -51.046    -132.021
  C     -118.354     -52.350    -130.925
  N     -118.829     -53.244    -131.980
  C     -118.090     -54.409    -132.194
  O     -117.084     -54.638    -131.519
  N     -118.464     -55.254    -133.208
  C     -119.446     -54.924    -133.992
  N     -119.751     -55.791    -134.994
  C     -120.209     -53.670    -133.840
  C     -119.858     -52.888    -132.822
  O     -122.391     -47.978    -130.312
  O     -121.881     -48.032    -132.830
  H     -116.535     -51.600    -132.834
  H     -122.122     -47.047    -130.428
  H     -121.002     -53.425    -134.536
  H     -120.359     -51.946    -132.638
  H     -117.550     -52.856    -130.372
  H     -118.528     -50.677    -132.298
  H     -118.126     -49.052    -130.589
  H     -118.997     -50.705    -128.460
  H     -119.190     -56.631    -135.074
  H     -121.335     -50.482    -129.401
  H     -120.462     -55.614    -135.689
  H     -120.466     -48.940    -129.206
  P     -115.661     -49.154    -129.715
  C     -117.225     -47.271    -128.849
  O     -115.940     -47.875    -128.787
  O     -115.948     -48.620    -131.196
  O     -114.289     -49.736    -129.596
  H     -115.277     -48.967    -131.812
  H     -117.260     -46.437    -128.180
  H     -117.969     -47.986    -128.566
  H     -117.414     -46.935    -129.847

 6  7  8  9  10  11  12  13  14  15  16  26  30  31  32  33  35 0
 6-311+G(2d,p)
 ****
 37  38 0
 6-311+G(2d,p)
 ****
 1  2  3  4  5  17  18  19  20  21  22  23  24  25 0
 3-21G
 ****
 27  28  29  34  36  39  40  41  42  43  44  45  46 0
 3-21G
 ****


