%nproc=1
%NoSave
%Mem=1900MB
#P OB98/GEN NMR

erre ene a

0 1
  C       51.866     -64.942     -71.970
  O       53.030     -65.074     -72.781
  P       54.148     -63.930     -72.707
  C       53.794     -62.748     -75.047
  O       53.732     -62.704     -73.639
  C       53.852     -61.314     -75.598
  O       52.570     -60.667     -75.445
  C       54.881     -60.438     -74.891
  O       56.171     -60.568     -75.461
  C       54.283     -59.056     -75.055
  O       54.524     -58.561     -76.385
  C       52.778     -59.353     -74.854
  N       52.249     -59.368     -73.473
  C       52.149     -58.177     -72.757
  O       52.478     -57.077     -73.194
  N       51.633     -58.278     -71.492
  C       51.060     -59.386     -70.940
  O       50.560     -59.402     -69.824
  C       51.057     -60.579     -71.793
  C       51.649     -60.522     -72.988
  O       55.401     -64.575     -73.458
  O       54.493     -63.494     -71.316
  H       55.473     -58.358     -76.450
  H       56.144     -64.697     -72.838
  H       51.619     -57.438     -70.934
  H       50.571     -61.468     -71.414
  H       51.652     -61.402     -73.627
  H       52.165     -58.640     -75.417
  H       54.745     -58.342     -74.378
  H       54.904     -60.669     -73.822
  H       54.080     -61.365     -76.670
  H       52.927     -63.271     -75.459
  H       54.680     -63.310     -75.359
  P       57.404     -61.029     -74.550
  C       57.608     -58.590     -73.785
  O       57.504     -59.940     -73.375
  O       58.676     -61.322     -75.269
  O       56.838     -62.317     -73.779
  H       57.105     -63.145     -74.242
  H       57.507     -57.948     -72.905
  H       56.815     -58.344     -74.496
  H       58.585     -58.415     -74.242
  H       51.221     -65.780     -72.132
  H       51.351     -64.040     -72.229
  H       52.152     -64.906     -70.939

 3  4  5  6  7  8  9  10  11  12  13  23  28  29  30  31  32 0
 6-311+G(2d,p)
 ****
 33  34 0
 6-311+G(2d,p)
 ****
 1  2  14  15  16  17  18  19  20  21  22  24  25  26  27 0
 3-21G
 ****
 35  36  37  38  39  40  41  42  43  44  45 0
 3-21G
 ****


