%nproc=1
%NoSave
%Mem=1900MB
#P OB98/GEN NMR

erre ene a

0 1
  C     -153.802     197.767     244.978
  O     -153.137     198.154     246.185
  P     -151.595     198.596     246.124
  C     -151.645     201.166     246.361
  O     -151.398     199.924     247.012
  C     -151.437     202.337     247.330
  O     -152.207     202.133     248.557
  C     -149.968     202.511     247.747
  O     -149.665     203.898     247.964
  C     -149.914     201.806     249.094
  O     -148.796     202.239     249.869
  C     -151.282     202.181     249.663
  N     -150.928     201.112     254.670
  C     -150.432     202.132     253.926
  N     -150.590     202.361     252.605
  C     -151.354     201.413     252.043
  C     -151.939     200.320     252.673
  C     -151.691     200.176     254.048
  N     -152.171     199.120     254.796
  N     -152.650     199.558     251.767
  C     -152.466     200.153     250.605
  N     -151.717     201.295     250.726
  O     -150.996     198.655     244.754
  O     -150.870     197.479     247.018
  H     -148.003     201.808     249.503
  H     -150.033     197.209     246.581
  H     -149.828     202.857     254.473
  H     -152.838     199.793     249.655
  H     -151.291     203.205     250.058
  H     -149.827     200.719     248.941
  H     -149.245     202.096     247.036
  H     -151.822     203.256     246.864
  H     -152.664     201.181     245.964
  H     -151.848     199.039     255.751
  H     -152.614     198.350     254.318
  H     -150.987     201.252     245.485
  P     -148.575     204.553     246.967
  C     -150.125     205.933     245.369
  O     -149.225     205.928     246.454
  O     -148.106     203.606     245.906
  O     -147.421     205.001     247.984
  H     -147.737     205.525     248.748
  H     -150.549     206.941     245.270
  H     -150.953     205.233     245.549
  H     -149.605     205.663     244.447
  H     -154.816     197.505     245.198
  H     -153.301     196.925     244.549
  H     -153.786     198.582     244.285

 3  4  5  6  7  8  9  10  11  12  22  25  29  30  31  32 0
 6-311+G(2d,p)
 ****
 33  36  37 0
 6-311+G(2d,p)
 ****
 1  2  13  14  15  16  17  18  19  20  21  23  24  26 0
 3-21G
 ****
 27  28  34  35  38  39  40  41  42  43  44  45  46  47  48 0
 3-21G
 ****


