%nproc=1
%NoSave
%Mem=1900MB
#P OB98/GEN NMR

erre ene a

0 1
  C       75.809      -4.397     454.190
  O       76.883      -4.963     453.467
  H       76.213      -3.880     455.066
  H       75.123      -5.177     454.531
  H       75.270      -3.671     453.571
  P       76.560      -5.842     452.163
  C       78.855      -6.994     451.896
  O       77.948      -6.030     451.376
  C       80.306      -6.529     451.674
  O       80.451      -5.232     452.315
  C       81.333      -7.493     452.291
  O       82.337      -7.909     451.359
  C       81.798      -6.763     453.545
  O       83.095      -7.107     453.984
  C       81.610      -5.285     453.172
  N       81.446      -4.398     454.328
  C       82.554      -3.677     454.749
  O       83.661      -3.708     454.211
  N       82.352      -2.878     455.844
  C       81.191      -2.733     456.541
  O       81.065      -1.998     457.512
  C       80.058      -3.546     456.057
  C       80.227      -4.325     454.990
  O       75.423      -5.362     451.325
  O       76.284      -7.304     452.749
  H       83.357      -6.460     454.668
  H       75.319      -7.477     452.765
  H       83.148      -2.338     456.150
  H       79.117      -3.461     456.593
  H       79.415      -4.938     454.612
  H       82.475      -4.925     452.602
  H       81.104      -7.006     454.363
  H       80.859      -8.436     452.584
  H       80.473      -6.388     450.602
  H       78.683      -7.940     451.373
  H       78.671      -7.135     452.965
  P       82.382      -9.336     450.652
  C       84.872      -9.908     451.255
  O       83.901      -9.655     450.254
  O       81.342      -9.579     449.607
  O       82.100     -10.362     451.867
  H       81.603     -11.121     451.490
  H       85.819     -10.098     450.794
  H       84.577     -10.761     451.830
  H       84.953      -9.056     451.897

 6  7  8  9  10  11  12  13  14  15  16  26  31  32  33  34  35 0
 6-311+G(2d,p)
 ****
 36  37 0
 6-311+G(2d,p)
 ****
 1  2  3  4  5  17  18  19  20  21  22  23  24  25 0
 3-21G
 ****
 27  28  29  30  38  39  40  41  42  43  44  45 0
 3-21G
 ****


