%nproc=1
%NoSave
%Mem=1900MB
#P OB98/GEN NMR

erre ene a

0 1
  C     -382.008    -597.091    -462.240
  O     -383.415    -597.019    -462.174
  H     -381.620    -597.189    -461.218
  H     -381.612    -596.178    -462.677
  H     -381.674    -597.958    -462.816
  P     -384.254    -597.169    -463.536
  C     -386.038    -598.999    -463.198
  O     -384.715    -598.705    -463.623
  C     -386.025    -599.850    -461.919
  O     -385.300    -599.129    -460.887
  C     -387.433    -600.168    -461.375
  O     -387.352    -601.443    -460.723
  C     -387.613    -599.062    -460.350
  O     -388.645    -599.368    -459.435
  C     -386.204    -598.975    -459.765
  N     -385.965    -597.718    -459.045
  C     -385.251    -597.812    -457.856
  O     -384.848    -598.883    -457.393
  N     -385.038    -596.645    -457.180
  C     -385.538    -595.425    -457.540
  O     -385.347    -594.404    -456.879
  C     -386.318    -595.394    -458.787
  C     -386.495    -596.515    -459.464
  O     -383.593    -596.645    -464.766
  O     -385.640    -596.415    -463.238
  H     -388.442    -600.198    -458.965
  H     -385.994    -596.034    -464.056
  H     -384.519    -596.689    -456.321
  H     -386.729    -594.439    -459.096
  H     -387.073    -596.529    -460.386
  H     -386.011    -599.798    -459.069
  H     -387.883    -598.116    -460.841
  H     -388.202    -600.178    -462.137
  H     -385.461    -600.767    -462.122
  H     -386.531    -599.553    -464.004
  H     -386.579    -598.067    -463.024
  P     -387.483    -602.816    -461.530
  C     -385.369    -604.132    -460.882
  O     -386.024    -603.364    -461.890
  O     -388.414    -602.768    -462.692
  O     -388.024    -603.877    -460.443
  H     -388.536    -604.576    -460.884
  H     -384.408    -604.440    -461.237
  H     -385.958    -604.995    -460.652
  H     -385.250    -603.537    -460.001

 6  7  8  9  10  11  12  13  14  15  16  26  31  32  33  34  35 0
 6-311+G(2d,p)
 ****
 36  37 0
 6-311+G(2d,p)
 ****
 1  2  3  4  5  17  18  19  20  21  22  23  24  25 0
 3-21G
 ****
 27  28  29  30  38  39  40  41  42  43  44  45 0
 3-21G
 ****


