%nproc=1
%NoSave
%Mem=1900MB
#P OB98/GEN NMR

erre ene a

0 1
  C      239.059    -518.115     430.707
  O      239.805    -519.043     429.939
  H      239.321    -518.248     431.761
  H      237.990    -518.296     430.589
  H      239.302    -517.090     430.415
  P      239.728    -518.960     428.340
  C      242.168    -519.732     428.010
  O      240.791    -520.015     427.762
  C      242.814    -520.932     428.711
  O      242.347    -521.025     430.077
  C      242.486    -522.278     428.069
  O      243.234    -522.469     426.879
  C      242.833    -523.232     429.201
  O      244.253    -523.467     429.256
  C      242.355    -522.435     430.440
  N      241.050    -522.855     430.921
  C      241.009    -524.074     431.621
  O      242.002    -524.779     431.801
  N      239.778    -524.460     432.070
  C      238.595    -523.825     431.807
  O      237.501    -524.262     432.159
  C      238.689    -522.578     431.051
  C      239.895    -522.150     430.649
  O      239.817    -517.592     427.758
  O      238.321    -519.652     427.998
  H      244.516    -523.756     428.358
  H      237.672    -518.965     427.757
  H      239.729    -525.337     432.562
  H      237.770    -522.038     430.840
  H      239.981    -521.235     430.085
  H      243.083    -522.534     431.256
  H      242.343    -524.190     429.093
  H      241.412    -522.336     427.864
  H      243.904    -520.767     428.732
  H      242.236    -518.851     428.663
  H      242.665    -519.524     427.062
  P      242.505    -523.016     425.560
  C      244.127    -521.937     423.873
  O      243.613    -523.160     424.412
  O      241.269    -522.273     425.160
  O      242.168    -524.538     425.923
  H      241.200    -524.674     425.884
  H      244.854    -522.157     423.120
  H      244.584    -521.367     424.655
  H      243.326    -521.373     423.442

 6  7  8  9  10  11  12  13  14  15  16  26  31  32  33  34  35 0
 6-311+G(2d,p)
 ****
 36  37 0
 6-311+G(2d,p)
 ****
 1  2  3  4  5  17  18  19  20  21  22  23  24  25 0
 3-21G
 ****
 27  28  29  30  38  39  40  41  42  43  44  45 0
 3-21G
 ****


