%nproc=1
%NoSave
%Mem=1900MB
#P OB98/GEN NMR

erre ene a

0 1
  C     -104.250     182.229     -62.492
  O     -104.515     183.059     -63.606
  H     -103.803     182.835     -61.702
  H     -103.549     181.438     -62.773
  H     -105.178     181.788     -62.119
  P     -105.193     182.352     -64.876
  C     -102.954     181.496     -65.902
  O     -104.200     181.168     -65.307
  C     -102.405     180.298     -66.685
  O     -102.085     179.232     -65.743
  C     -103.397     179.710     -67.700
  O     -102.639     179.124     -68.772
  C     -104.058     178.611     -66.885
  O     -104.777     177.727     -67.714
  C     -102.833     178.066     -66.156
  N     -101.489     173.915     -63.492
  C     -100.921     174.524     -64.556
  N     -101.330     175.632     -65.203
  C     -102.438     176.136     -64.634
  C     -103.125     175.631     -63.541
  C     -102.609     174.460     -62.962
  N     -103.189     173.834     -61.882
  N     -104.223     176.419     -63.250
  C     -104.197     177.381     -64.150
  N     -103.143     177.246     -65.011
  O     -105.018     183.437     -66.038
  O     -106.617     181.945     -64.701
  H     -105.421     178.217     -68.269
  H     -105.826     183.977     -66.113
  H     -100.019     174.054     -64.939
  H     -104.915     178.189     -64.230
  H     -102.191     177.479     -66.823
  H     -104.779     179.033     -66.176
  H     -104.092     180.449     -68.109
  H     -101.463     180.587     -67.167
  H     -102.252     181.775     -65.109
  H     -103.086     182.344     -66.581
  H     -102.765     172.989     -61.535
  H     -104.034     174.220     -61.487
  P     -102.155     180.055     -69.989
  C     -103.879     179.090     -71.704
  O     -103.374     180.226     -71.020
  O     -101.178     179.070     -70.794
  O     -101.442     181.309     -69.604
  H     -100.503     179.594     -71.265
  H     -104.683     179.388     -72.345
  H     -104.236     178.375     -70.993
  H     -103.099     178.651     -72.291

 6  7  8  9  10  11  12  13  14  15  25  28  32  33  34  35 0
 6-311+G(2d,p)
 ****
 36  37  40 0
 6-311+G(2d,p)
 ****
 1  2  3  4  5  16  17  18  19  20  21  22  23  24 0
 3-21G
 ****
 26  27  29  30  31  38  39 41  42  43  44  45  46  47  48 0
 3-21G
 ****


