%nproc=1
%NoSave
%Mem=1900MB
#P OB98/GEN NMR

erre ene a

0 1
  C      337.147    -528.847    -159.866
  O      337.722    -527.547    -159.964
  P      336.734    -526.283    -159.984
  C      337.859    -525.379    -162.138
  O      337.488    -525.117    -160.794
  C      339.167    -524.674    -162.495
  O      338.971    -523.233    -162.394
  C      340.356    -525.031    -161.600
  O      341.534    -524.981    -162.408
  C      340.388    -523.891    -160.603
  O      341.660    -523.761    -159.966
  C      339.990    -522.725    -161.505
  N      341.257    -518.528    -158.878
  C      342.011    -519.432    -159.540
  N      341.601    -520.525    -160.219
  C      340.258    -520.639    -160.166
  C      339.366    -519.814    -159.501
  C      339.916    -518.706    -158.830
  N      339.152    -517.771    -158.164
  N      338.077    -520.266    -159.652
  C      338.183    -521.356    -160.396
  N      339.480    -521.606    -160.750
  O      336.784    -525.777    -158.468
  O      335.338    -526.571    -160.419
  H      341.823    -524.566    -159.442
  H      335.919    -525.933    -158.036
  H      343.084    -519.252    -159.531
  H      337.361    -521.983    -160.701
  H      340.830    -522.373    -162.115
  H      339.645    -524.063    -159.815
  H      340.269    -526.016    -161.116
  H      339.403    -524.892    -163.548
  H      337.070    -525.007    -162.799
  H      339.602    -516.937    -157.833
  H      338.146    -517.794    -158.285
  H      337.961    -526.458    -162.291
  P      342.580    -526.190    -162.254
  C      344.285    -525.016    -160.692
  O      344.012    -525.531    -161.985
  O      342.700    -526.768    -163.746
  O      342.149    -527.245    -161.289
  H      342.936    -527.709    -163.716
  H      345.346    -525.156    -160.472
  H      343.694    -525.518    -159.917
  H      344.058    -523.949    -160.677
  H      337.925    -529.582    -159.864
  H      336.500    -529.015    -160.701
  H      336.585    -528.921    -158.959

 3  4  5  6  7  8  9  10  11  12  22  25  29  30  31  32 0
 6-311+G(2d,p)
 ****
 33  36  37 0
 6-311+G(2d,p)
 ****
 1  2  13  14  15  16  17  18  19  20  21  23  24  26 0
 3-21G
 ****
 27  28  34  35  38  39  40  41  42  43  44  45  46  47  48 0
 3-21G
 ****


