%nproc=1
%NoSave
%Mem=1900MB
#P OB98/GEN NMR

erre ene a

0 1
  C      -80.300     136.898     235.798
  O      -79.382     136.323     236.723
  P      -78.182     135.348     236.328
  C      -76.420     135.954     238.173
  O      -77.351     135.015     237.654
  C      -76.648     136.271     239.660
  O      -77.694     137.270     239.789
  C      -77.145     135.030     240.405
  O      -76.221     134.066     240.873
  C      -78.074     135.572     241.481
  O      -77.409     135.765     242.733
  C      -78.532     136.914     240.906
  N      -83.143     139.099     241.291
  C      -81.974     139.408     241.956
  N      -82.043     140.393     242.877
  N      -80.838     138.797     241.747
  C      -80.927     137.776     240.864
  C      -82.033     137.359     240.159
  C      -83.271     138.084     240.354
  O      -84.334     137.857     239.784
  N      -81.747     136.274     239.372
  C      -80.478     136.016     239.618
  N      -79.932     136.907     240.515
  O      -77.401     135.744     235.121
  O      -78.930     133.959     235.990
  H      -77.942     136.384     243.262
  H      -78.405     133.523     235.287
  H      -83.983     139.620     241.473
  H      -79.910     135.210     239.172
  H      -78.423     137.718     241.646
  H      -78.893     134.868     241.672
  H      -82.909     140.820     243.170
  H      -77.792     134.480     239.710
  H      -81.249     140.475     243.516
  H      -75.755     136.715     240.106
  H      -76.516     136.862     237.570
  H      -75.402     135.590     238.028
  P      -76.210     132.507     240.505
  C      -74.096     132.422     239.060
  O      -74.688     132.059     240.294
  O      -76.798     132.457     239.018
  O      -77.006     131.636     241.422
  H      -77.076     131.550     238.791
  H      -73.200     131.815     238.902
  H      -73.812     133.478     239.086
  H      -74.790     132.251     238.227
  H      -81.002     137.510     236.325
  H      -80.822     136.119     235.283
  H      -79.766     137.497     235.091

 3  4  5  6  7  8  9  10  11  12  23  26  30  31 0
 6-311+G(2d,p)
 ****
 33  35  36  37  38 0
 6-311+G(2d,p)
 ****
 1  2  13  14  15  16  17  18  19  20  21  22  24  25 0
 3-21G
 ****
 27  28  29  32  34  39  40  41  42  43  44  45  46  47  48  49 0
 3-21G
 ****


