%nproc=1
%NoSave
%Mem=1900MB
#P OB98/GEN NMR

erre ene a

0 1
  C       -9.940     -85.136      26.564
  O       -9.035     -85.954      27.280
  H      -10.612     -85.777      25.990
  H       -9.393     -84.486      25.876
  H      -10.532     -84.531      27.256
  P       -7.968     -85.195      28.206
  C       -6.412     -83.207      27.556
  O       -6.946     -84.474      27.202
  C       -5.299     -82.805      26.581
  O       -4.203     -83.759      26.704
  C       -5.731     -82.814      25.106
  O       -4.936     -81.842      24.407
  C       -5.323     -84.213      24.674
  O       -5.330     -84.331      23.270
  C       -3.979     -84.314      25.389
  N       -1.982     -88.261      22.827
  C       -2.314     -87.012      22.437
  N       -2.829     -86.012      23.179
  C       -2.978     -86.396      24.458
  C       -2.676     -87.632      25.005
  C       -2.158     -88.598      24.126
  N       -1.827     -89.874      24.518
  N       -2.970     -87.652      26.357
  C       -3.439     -86.448      26.617
  N       -3.470     -85.660      25.501
  O       -7.108     -86.390      28.832
  O       -8.545     -84.310      29.258
  H       -6.249     -84.375      22.929
  H       -7.458     -86.626      29.711
  H       -2.144     -86.786      21.387
  H       -3.777     -86.101      27.586
  H       -3.209     -83.707      24.899
  H       -6.026     -84.959      25.056
  H       -6.791     -82.589      24.962
  H       -4.902     -81.827      26.875
  H       -6.009     -83.272      28.573
  H       -7.207     -82.456      27.531
  H       -1.476     -90.513      23.823
  H       -1.969     -90.145      25.480
  P       -5.636     -80.498      23.870
  C       -7.187     -79.827      21.873
  O       -6.407     -80.832      22.503
  O       -4.377     -79.656      23.343
  O       -6.407     -79.719      24.884
  H       -4.575     -78.702      23.403
  H       -7.625     -80.223      20.981
  H       -6.563     -78.994      21.625
  H       -7.961     -79.507      22.539

 6  7  8  9  10  11  12  13  14  15  25  28  32  33  34  35 0
 6-311+G(2d,p)
 ****
 36  37  40 0
 6-311+G(2d,p)
 ****
 1  2  3  4  5  16  17  18  19  20  21  22  23  24 0
 3-21G
 ****
 26  27  29  30  31  38  39 41  42  43  44  45  46  47  48 0
 3-21G
 ****


