%nproc=1
%NoSave
%Mem=1900MB
#P OB98/GEN NMR

erre ene a

0 1
  C       50.205      16.765      18.740
  O       50.800      16.985      20.004
  H       49.897      15.719      18.675
  H       50.923      16.973      17.942
  H       49.322      17.400      18.626
  P       51.356      18.462      20.290
  C       52.627      20.191      18.843
  O       52.135      18.861      18.946
  C       53.923      20.220      18.037
  O       54.989      19.609      18.784
  C       53.853      19.479      16.707
  O       53.281      20.306      15.707
  C       55.329      19.223      16.440
  O       55.931      20.409      15.884
  C       55.890      18.963      17.849
  N       58.783      14.739      17.466
  C       58.846      15.929      16.831
  N       58.013      16.986      16.940
  C       57.034      16.732      17.824
  C       56.841      15.564      18.546
  C       57.776      14.534      18.345
  N       57.708      13.321      18.995
  N       55.727      15.663      19.354
  C       55.291      16.892      19.166
  N       56.025      17.567      18.223
  O       52.109      18.635      21.565
  O       50.009      19.322      20.176
  H       55.487      20.577      15.032
  H       49.461      19.002      19.437
  H       59.675      16.048      16.138
  H       54.465      17.347      19.700
  H       56.879      19.417      17.981
  H       55.493      18.417      15.724
  H       53.334      18.519      16.804
  H       54.198      21.273      17.880
  H       52.804      20.608      19.841
  H       58.297      12.580      18.651
  H       56.885      13.127      19.548
  H       51.857      20.792      18.349
  P       52.397      19.681      14.522
  C       53.026      17.913      12.765
  O       53.460      19.051      13.500
  O       51.404      20.620      13.931
  O       51.718      18.390      15.176
  H       50.965      18.096      14.627
  H       53.814      17.583      12.121
  H       52.170      18.173      12.178
  H       52.768      17.127      13.444

 6  7  8  9  10  11  12  13  14  15  25  28  32  33  34  35 0
 6-311+G(2d,p)
 ****
 36  39  40 0
 6-311+G(2d,p)
 ****
 1  2  3  4  5  16  17  18  19  20  21  22  23  24 0
 3-21G
 ****
 26  27  29  30  31  37  38  41  42  43  44  45  46  47 0
 3-21G
 ****
 48 0
 3-21G
 ****


