%nproc=1
%NoSave
%Mem=1900MB
#P OB98/GEN NMR

erre ene a

0 1
  C      480.261    -359.640    1104.550
  O      481.339    -360.138    1103.785
  H      479.377    -359.517    1103.923
  H      480.031    -360.356    1105.345
  H      480.531    -358.687    1105.009
  P      481.811    -359.248    1102.542
  C      483.942    -358.393    1103.745
  O      482.705    -358.055    1103.130
  C      484.397    -357.266    1104.677
  O      483.436    -357.163    1105.768
  C      485.794    -357.464    1105.289
  O      486.638    -356.355    1104.953
  C      485.556    -357.443    1106.792
  O      486.558    -356.732    1107.517
  C      484.187    -356.790    1106.933
  N      484.270    -356.539    1112.021
  C      484.806    -355.735    1111.083
  N      484.653    -355.789    1109.737
  C      483.837    -356.808    1109.398
  C      483.201    -357.693    1110.248
  C      483.465    -357.550    1111.623
  N      482.972    -358.408    1112.580
  N      482.452    -358.615    1109.525
  C      482.662    -358.302    1108.262
  N      483.507    -357.224    1108.136
  O      480.461    -358.514    1102.081
  O      482.439    -360.006    1101.417
  H      487.361    -357.288    1107.499
  H      480.362    -358.592    1101.109
  H      485.433    -354.935    1111.452
  H      482.274    -358.843    1107.409
  H      484.254    -355.693    1106.949
  H      485.539    -358.483    1107.159
  H      486.265    -358.396    1104.977
  H      484.355    -356.327    1104.122
  H      484.714    -358.547    1102.978
  H      483.297    -358.303    1113.531
  H      482.451    -359.224    1112.278
  H      483.822    -359.333    1104.305
  P      487.511    -356.498    1103.617
  C      486.495    -354.477    1102.313
  O      486.648    -355.890    1102.407
  O      487.485    -358.078    1103.326
  O      488.906    -355.978    1103.733
  H      488.280    -358.341    1102.825
  H      485.897    -354.239    1101.458
  H      487.457    -354.020    1102.214
  H      486.015    -354.111    1103.197

 6  7  8  9  10  11  12  13  14  15  25  28  32  33  34  35 0
 6-311+G(2d,p)
 ****
 36  39  40 0
 6-311+G(2d,p)
 ****
 1  2  3  4  5  16  17  18  19  20  21  22  23  24 0
 3-21G
 ****
 26  27  29  30  31  37  38  41  42  43  44  45  46  47  48 0
 3-21G
 ****


