%nproc=1
%NoSave
%Mem=1900MB
#P OB98/GEN NMR

erre ene a

0 1
  C      127.932       8.407    -331.304
  O      128.076       7.269    -330.472
  P      128.842       7.363    -329.064
  C      126.747       8.228    -327.819
  O      128.069       8.511    -328.251
  C      126.687       8.229    -326.296
  O      127.515       7.172    -325.775
  C      127.191       9.512    -325.644
  O      126.233      10.551    -325.751
  C      127.478       9.024    -324.229
  O      126.259       8.950    -323.470
  C      128.018       7.600    -324.487
  N      129.473       7.532    -324.441
  C      130.059       7.545    -323.171
  O      129.367       7.603    -322.155
  N      131.425       7.455    -323.073
  C      132.147       7.385    -324.150
  N      133.491       7.228    -323.994
  C      131.575       7.425    -325.508
  C      130.247       7.491    -325.579
  O      130.316       7.553    -329.163
  O      128.411       6.040    -328.284
  H      125.896       9.855    -323.433
  H      128.999       5.265    -328.463
  H      132.221       7.375    -326.375
  H      129.750       7.505    -326.539
  H      127.606       6.901    -323.751
  H      128.177       9.663    -323.680
  H      128.125       9.837    -326.117
  H      125.647       8.032    -325.991
  H      133.815       7.032    -323.053
  H      126.465       7.235    -328.189
  H      134.073       6.883    -324.744
  H      126.063       8.970    -328.244
  P      126.777      12.059    -325.820
  C      126.443      12.528    -328.348
  O      127.358      12.247    -327.306
  O      128.074      12.024    -324.884
  O      125.793      13.093    -325.384
  H      127.873      12.406    -324.010
  H      127.006      12.856    -329.226
  H      125.751      13.321    -328.055
  H      125.884      11.624    -328.608
  H      127.396       8.136    -332.189
  H      128.899       8.777    -331.572
  H      127.392       9.167    -330.779

 3  4  5  6  7  8  9  10  11  12  13  23  27  28  29  30  32 0
 6-311+G(2d,p)
 ****
 34  35 0
 6-311+G(2d,p)
 ****
 1  2  14  15  16  17  18  19  20  21  22  24  25  26 0
 3-21G
 ****
 31  33  36  37  38  39  40  41  42  43  44  45  46 0
 3-21G
 ****


