%nproc=1
%NoSave
%Mem=1900MB
#P OB98/GEN NMR

erre ene a

0 1
  C       -1.953    -256.903     176.453
  O       -2.923    -257.929     176.474
  H       -1.603    -256.774     175.423
  H       -1.103    -257.171     177.087
  H       -2.394    -255.965     176.798
  P       -3.486    -258.357     177.920
  C       -2.907    -260.807     178.624
  O       -2.440    -259.479     178.416
  C       -2.505    -261.694     177.451
  O       -1.080    -261.607     177.204
  C       -2.788    -263.185     177.655
  O       -4.153    -263.521     177.473
  C       -1.909    -263.763     176.563
  O       -2.527    -263.557     175.281
  C       -0.635    -262.902     176.724
  N        0.347    -263.490     177.638
  C        1.681    -263.519     177.199
  O        1.993    -263.063     176.103
  N        2.635    -264.088     178.017
  C        2.290    -264.575     179.173
  N        3.279    -265.135     179.929
  C        0.902    -264.560     179.673
  C       -0.006    -264.011     178.867
  O       -4.789    -259.216     177.574
  O       -3.717    -257.242     178.888
  H       -3.443    -263.884     175.354
  H       -5.130    -259.656     178.390
  H        0.659    -264.997     180.637
  H       -1.047    -263.967     179.168
  H       -0.151    -262.738     175.748
  H       -1.744    -264.836     176.663
  H       -2.424    -263.529     178.631
  H       -3.016    -261.309     176.553
  H        4.203    -265.187     179.534
  H       -3.995    -260.772     178.722
  H        3.084    -265.677     180.767
  H       -2.477    -261.212     179.549
  P       -4.711    -264.786     178.294
  C       -5.177    -266.870     176.798
  O       -4.222    -266.102     177.522
  O       -6.286    -264.749     177.999
  O       -4.412    -264.760     179.769
  H       -6.793    -265.058     178.779
  H       -4.691    -267.708     176.345
  H       -5.622    -266.262     176.038
  H       -5.937    -267.217     177.467

 6  7  8  9  10  11  12  13  14  15  16  26  30  31  32  33  35 0
 6-311+G(2d,p)
 ****
 37  38 0
 6-311+G(2d,p)
 ****
 1  2  3  4  5  17  18  19  20  21  22  23  24  25 0
 3-21G
 ****
 27  28  29  34  36  39  40  41  42  43  44  45  46 0
 3-21G
 ****


