%nproc=1
%NoSave
%Mem=1900MB
#P OB98/GEN NMR

erre ene a

0 1
  C      114.524      35.255     -65.680
  O      115.685      35.606     -66.405
  H      114.784      35.010     -64.648
  H      113.839      36.107     -65.677
  H      114.027      34.404     -66.152
  P      116.842      34.499     -66.496
  C      117.953      35.689     -64.479
  O      117.562      34.453     -65.059
  C      119.259      35.512     -63.708
  O      118.980      34.749     -62.507
  C      120.370      34.786     -64.487
  O      121.535      35.612     -64.571
  C      120.701      33.572     -63.633
  O      122.098      33.294     -63.568
  C      120.136      33.938     -62.265
  N      121.977      29.627     -60.270
  C      122.587      30.779     -60.624
  N      122.027      31.928     -61.050
  C      120.686      31.825     -61.068
  C      119.923      30.726     -60.713
  C      120.625      29.577     -60.315
  N      120.006      28.386     -60.007
  N      118.576      30.995     -60.872
  C      118.531      32.219     -61.356
  N      119.783      32.753     -61.510
  O      117.936      35.189     -67.441
  O      116.410      33.174     -67.029
  H      122.196      32.466     -63.062
  H      118.216      34.560     -68.132
  H      123.671      30.774     -60.565
  H      117.633      32.745     -61.653
  H      120.845      34.526     -61.670
  H      120.193      32.695     -64.051
  H      120.055      34.485     -65.492
  H      119.607      36.502     -63.388
  H      117.177      36.032     -63.787
  H      120.591      27.582     -59.846
  H      119.009      28.310     -60.144
  H      118.068      36.435     -65.272
  P      121.551      36.719     -65.739
  C      123.472      36.291     -67.443
  O      122.132      36.014     -67.058
  O      122.738      37.695     -65.291
  O      120.258      37.444     -65.903
  H      122.586      38.591     -65.646
  H      123.706      35.749     -68.335
  H      124.137      35.993     -66.660
  H      123.581      37.340     -67.624

 6  7  8  9  10  11  12  13  14  15  25  28  32  33  34  35 0
 6-311+G(2d,p)
 ****
 36  39  40 0
 6-311+G(2d,p)
 ****
 1  2  3  4  5  16  17  18  19  20  21  22  23  24 0
 3-21G
 ****
 26  27  29  30  31  37  38  41  42  43  44  45  46  47  48 0
 3-21G
 ****


