%nproc=1
%NoSave
%Mem=1900MB
#P OB98/GEN NMR

erre ene a

0 1
  C      212.446     171.852    -359.552
  O      211.137     172.256    -359.903
  H      212.724     170.993    -360.168
  H      212.486     171.555    -358.500
  H      213.159     172.660    -359.736
  P      210.496     173.505    -359.130
  C      211.026     175.025    -361.150
  O      210.025     174.531    -360.268
  C      210.400     175.945    -362.189
  O      209.530     175.200    -363.063
  C      209.553     177.069    -361.592
  O      210.381     178.136    -361.158
  C      208.691     177.430    -362.791
  O      209.457     178.212    -363.724
  C      208.389     176.043    -363.381
  N      203.558     174.839    -364.336
  C      204.463     175.554    -365.100
  N      203.997     176.054    -366.265
  N      205.700     175.774    -364.742
  C      206.002     175.273    -363.523
  C      205.190     174.564    -362.668
  C      203.836     174.276    -363.099
  O      203.008     173.634    -362.461
  N      205.826     174.278    -361.488
  C      207.037     174.780    -361.646
  N      207.189     175.407    -362.860
  O      211.344     174.132    -358.065
  O      209.120     172.938    -358.549
  H      208.843     178.481    -364.434
  H      209.233     172.599    -357.643
  H      202.611     174.720    -364.657
  H      207.835     174.714    -360.918
  H      208.291     176.067    -364.472
  H      207.809     178.011    -362.525
  H      203.005     176.157    -366.443
  H      208.901     176.707    -360.791
  H      204.628     176.620    -366.815
  H      211.208     176.351    -362.810
  H      211.495     174.161    -361.633
  H      211.791     175.570    -360.588
  P      209.778     179.361    -360.312
  C      210.505     178.475    -357.994
  O      210.701     179.456    -359.006
  O      208.315     179.270    -360.033
  O      210.200     180.663    -361.131
  H      209.548     180.921    -361.825
  H      211.182     178.656    -357.186
  H      210.687     177.502    -358.400
  H      209.498     178.529    -357.635

 6  7  8  9  10  11  12  13  14  15  26  29  33  34 0
 6-311+G(2d,p)
 ****
 36  38  39  40  41 0
 6-311+G(2d,p)
 ****
 1  2  3  4  5  16  17  18  19  20  21  22  23  24  25 0
 3-21G
 ****
 27  28  30  31  32  35  37  42  43  44  45  46  47 0
 3-21G
 ****
 48  49 0
 3-21G
 ****


