%nproc=1
%NoSave
%Mem=1900MB
#P OB98/GEN NMR

erre ene a

0 1
  C      -87.416    -792.001    -487.817
  O      -86.594    -793.098    -488.167
  H      -88.173    -792.346    -487.115
  H      -87.917    -791.607    -488.705
  H      -86.826    -791.213    -487.343
  P      -85.313    -792.842    -489.099
  C      -83.506    -792.905    -487.262
  O      -84.224    -792.096    -488.185
  C      -82.011    -792.619    -487.376
  O      -81.555    -792.886    -488.727
  C      -81.629    -791.174    -487.086
  O      -81.658    -790.915    -485.696
  C      -80.249    -791.111    -487.730
  O      -79.260    -791.708    -486.879
  C      -80.457    -791.981    -488.993
  N      -80.722    -791.176    -490.192
  C      -79.709    -791.147    -491.146
  O      -78.644    -791.741    -491.014
  N      -79.950    -790.357    -492.239
  C      -81.033    -789.553    -492.426
  O      -81.103    -788.704    -493.309
  C      -82.099    -789.686    -491.425
  C      -81.896    -790.465    -490.366
  O      -85.585    -792.197    -490.414
  O      -84.683    -794.305    -489.280
  H      -84.934    -794.654    -490.152
  H      -79.275    -791.206    -486.036
  H      -79.202    -790.292    -492.911
  H      -83.006    -789.111    -491.572
  H      -82.660    -790.556    -489.599
  H      -79.578    -792.594    -489.187
  H      -79.929    -790.091    -487.929
  H      -82.300    -790.492    -487.631
  H      -81.478    -793.306    -486.704
  H      -83.700    -793.954    -487.492
  H      -83.858    -792.694    -486.248
  P      -81.686    -789.416    -485.131
  C      -83.996    -789.147    -484.043
  O      -83.199    -788.893    -485.193
  O      -80.685    -788.495    -485.740
  O      -81.432    -789.588    -483.562
  H      -80.679    -789.011    -483.297
  H      -84.980    -788.756    -484.197
  H      -83.554    -788.674    -483.191
  H      -84.054    -790.202    -483.875

 6  7  8  9  10  11  12  13  14  15  16  27  31  32  33  34  35 0
 6-311+G(2d,p)
 ****
 36  37 0
 6-311+G(2d,p)
 ****
 1  2  3  4  5  17  18  19  20  21  22  23  24  25 0
 3-21G
 ****
 26  28  29  30  38  39  40  41  42  43  44  45 0
 3-21G
 ****


