%nproc=1
%NoSave
%Mem=1900MB
#P OB98/GEN NMR

erre ene a

0 1
  C     -460.806      61.674    -519.761
  O     -461.954      61.875    -520.563
  P     -462.543      60.676    -521.446
  C     -464.920      60.807    -520.474
  O     -463.755      60.003    -520.640
  C     -466.000      60.034    -519.730
  O     -465.552      59.666    -518.406
  C     -467.286      60.822    -519.507
  O     -468.033      60.971    -520.695
  C     -467.955      59.986    -518.419
  O     -468.616      58.847    -518.991
  C     -466.737      59.533    -517.582
  N     -466.609      60.284    -516.341
  C     -467.603      60.061    -515.382
  O     -468.564      59.330    -515.635
  N     -467.486      60.675    -514.160
  C     -466.538      61.537    -513.960
  N     -466.438      62.069    -512.714
  C     -465.562      61.921    -515.004
  C     -465.643      61.242    -516.152
  O     -461.528      59.715    -521.971
  O     -463.295      61.419    -522.651
  H     -463.000      61.024    -523.497
  H     -469.217      59.191    -519.682
  H     -464.834      62.694    -514.812
  H     -464.957      61.442    -516.965
  H     -466.818      58.469    -517.343
  H     -468.706      60.550    -517.862
  H     -467.039      61.811    -519.099
  H     -466.211      59.111    -520.289
  H     -467.111      61.773    -512.019
  H     -465.285      61.100    -521.463
  H     -465.574      62.480    -512.366
  H     -464.654      61.721    -519.926
  P     -467.792      62.313    -521.539
  C     -467.746      61.389    -523.957
  O     -467.004      61.905    -522.872
  O     -466.697      63.105    -520.673
  O     -469.019      63.143    -521.754
  H     -466.877      64.061    -520.717
  H     -467.155      61.489    -524.869
  H     -468.690      61.922    -524.090
  H     -467.947      60.325    -523.788
  H     -460.565      62.582    -519.249
  H     -459.983      61.386    -520.382
  H     -461.001      60.902    -519.046

 3  4  5  6  7  8  9  10  11  12  13  24  27  28  29  30  32 0
 6-311+G(2d,p)
 ****
 34  35 0
 6-311+G(2d,p)
 ****
 1  2  14  15  16  17  18  19  20  21  22  23  25  26 0
 3-21G
 ****
 31  33  36  37  38  39  40  41  42  43  44  45  46 0
 3-21G
 ****


