%nproc=1
%NoSave
%Mem=1900MB
#P OB98/GEN NMR

erre ene a

0 1
  C     -950.784    -697.557    -500.035
  O     -951.088    -697.163    -501.359
  H     -949.805    -697.158    -499.743
  H     -951.543    -697.155    -499.362
  H     -950.777    -698.649    -499.960
  P     -950.061    -697.619    -502.505
  C     -951.332    -699.490    -503.793
  O     -950.396    -699.166    -502.773
  C     -950.997    -700.870    -504.358
  O     -949.609    -700.929    -504.743
  C     -951.211    -702.008    -503.368
  O     -952.562    -702.424    -503.288
  C     -950.335    -703.079    -503.983
  O     -951.005    -703.672    -505.110
  C     -949.121    -702.264    -504.447
  N     -945.807    -704.943    -501.596
  C     -946.713    -705.324    -502.537
  N     -947.529    -704.547    -503.272
  C     -947.372    -703.256    -502.957
  C     -946.503    -702.714    -502.021
  C     -945.695    -703.625    -501.318
  N     -944.807    -703.240    -500.339
  N     -946.631    -701.342    -501.962
  C     -947.565    -701.057    -502.856
  N     -948.061    -702.183    -503.457
  O     -948.650    -697.681    -501.755
  O     -950.038    -696.771    -503.736
  H     -951.288    -702.943    -505.691
  H     -947.926    -697.726    -502.402
  H     -946.758    -706.391    -502.729
  H     -947.912    -700.067    -503.101
  H     -948.673    -702.669    -505.373
  H     -950.107    -703.899    -503.285
  H     -950.809    -701.754    -502.372
  H     -951.602    -701.027    -505.266
  H     -951.268    -698.741    -504.592
  H     -944.380    -703.978    -499.790
  H     -944.810    -702.288    -500.010
  H     -952.340    -699.489    -503.377
  P     -952.951    -703.441    -502.101
  C     -954.334    -702.031    -500.409
  O     -953.054    -702.562    -500.760
  O     -951.603    -704.277    -501.894
  O     -954.125    -704.323    -502.400
  H     -951.804    -705.190    -501.608
  H     -954.251    -701.472    -499.500
  H     -955.028    -702.834    -500.272
  H     -954.681    -701.390    -501.192

 6  7  8  9  10  11  12  13  14  15  25  28  32  33  34  35 0
 6-311+G(2d,p)
 ****
 36  39  40 0
 6-311+G(2d,p)
 ****
 1  2  3  4  5  16  17  18  19  20  21  22  23  24 0
 3-21G
 ****
 26  27  29  30  31  37  38  41  42  43  44  45  46  47 0
 3-21G
 ****
 48 0
 3-21G
 ****


