%nproc=1
%NoSave
%Mem=1900MB
#P OB98/GEN NMR

erre ene a

0 1
  C      266.496     -28.039      -4.048
  O      267.740     -28.407      -4.612
  H      266.320     -28.651      -3.160
  H      265.692     -28.217      -4.767
  H      266.510     -26.986      -3.755
  P      268.191     -27.605      -5.925
  C      269.733     -25.626      -5.218
  O      269.635     -26.990      -5.595
  C      270.693     -24.880      -6.152
  O      270.420     -23.451      -6.059
  C      272.177     -25.072      -5.801
  O      272.937     -24.946      -7.015
  C      272.441     -23.871      -4.909
  O      273.823     -23.666      -4.730
  C      271.658     -22.811      -5.676
  N      273.627     -18.456      -3.862
  C      274.144     -19.410      -4.664
  N      273.555     -20.536      -5.115
  C      272.289     -20.620      -4.672
  C      271.622     -19.722      -3.857
  C      272.348     -18.593      -3.440
  N      271.826     -17.623      -2.616
  N      270.330     -20.152      -3.612
  C      270.223     -21.289      -4.270
  N      271.382     -21.615      -4.917
  O      267.225     -26.330      -5.929
  O      268.112     -28.371      -7.203
  H      274.206     -24.358      -4.150
  H      266.452     -26.501      -6.498
  H      275.170     -19.250      -4.985
  H      269.340     -21.915      -4.302
  H      272.173     -22.509      -6.596
  H      272.015     -24.026      -3.912
  H      272.392     -26.037      -5.334
  H      270.485     -25.175      -7.187
  H      270.103     -25.576      -4.188
  H      268.743     -25.161      -5.267
  H      272.418     -16.852      -2.351
  H      270.880     -17.721      -2.280
  P      274.138     -25.978      -7.296
  C      272.815     -28.222      -7.531
  O      273.571     -27.201      -8.165
  O      274.336     -26.658      -5.857
  O      275.416     -25.371      -7.773
  H      275.261     -26.953      -5.760
  H      272.520     -28.951      -8.257
  H      271.943     -27.794      -7.082
  H      273.411     -28.691      -6.777

 6  7  8  9  10  11  12  13  14  15  25  28  32  33  34  35 0
 6-311+G(2d,p)
 ****
 36  37  40 0
 6-311+G(2d,p)
 ****
 1  2  3  4  5  16  17  18  19  20  21  22  23  24 0
 3-21G
 ****
 26  27  29  30  31  38  39 41  42  43  44  45  46  47  48 0
 3-21G
 ****


