%nproc=1
%NoSave
%Mem=1900MB
#P OB98/GEN NMR

erre ene a

0 1
  C      -96.975     -91.158     -91.186
  O      -96.672     -92.409     -90.592
  P      -95.155     -92.859     -90.308
  C      -95.110     -93.861     -92.693
  O      -94.479     -93.006     -91.754
  C      -94.079     -94.771     -93.361
  O      -93.085     -93.941     -94.018
  C      -93.337     -95.703     -92.395
  O      -93.087     -96.928     -93.093
  C      -92.040     -94.960     -92.136
  O      -91.001     -95.815     -91.681
  C      -91.792     -94.327     -93.510
  N      -90.890     -93.183     -93.444
  C      -89.527     -93.439     -93.287
  O      -89.107     -94.591     -93.182
  N      -88.659     -92.375     -93.249
  C      -89.119     -91.163     -93.280
  N      -88.215     -90.146     -93.301
  C      -90.559     -90.848     -93.336
  C      -91.373     -91.895     -93.438
  O      -95.011     -94.052     -89.429
  O      -94.452     -91.541     -89.746
  H      -91.143     -95.992     -90.732
  H      -94.577     -91.423     -88.771
  H      -90.894     -89.821     -93.330
  H      -92.443     -91.759     -93.510
  H      -91.391     -95.074     -94.204
  H      -92.204     -94.194     -91.372
  H      -93.910     -95.914     -91.487
  H      -94.585     -95.353     -94.141
  H      -87.243     -90.404     -93.436
  H      -95.583     -93.241     -93.460
  H      -88.471     -89.228     -93.645
  H      -95.889     -94.447     -92.194
  P      -93.223     -98.307     -92.282
  C      -90.729     -98.348     -91.563
  O      -92.081     -98.336     -91.157
  O      -92.663     -99.367     -93.352
  O      -94.601     -98.697     -91.857
  H      -93.049    -100.244     -93.162
  H      -90.097     -98.361     -90.670
  H      -90.494     -97.452     -92.142
  H      -90.515     -99.241     -92.155
  H      -98.036     -91.058     -91.285
  H      -96.519     -91.102     -92.153
  H      -96.599     -90.369     -90.568

 3  4  5  6  7  8  9  10  11  12  13  23  27  28  29  30  32 0
 6-311+G(2d,p)
 ****
 34  35 0
 6-311+G(2d,p)
 ****
 1  2  14  15  16  17  18  19  20  21  22  24  25  26 0
 3-21G
 ****
 31  33  36  37  38  39  40  41  42  43  44  45  46 0
 3-21G
 ****


