%nproc=1
%NoSave
%Mem=1900MB
#P OB98/GEN NMR

erre ene a

0 1
  C      -95.794    -306.704    -154.904
  O      -95.595    -305.518    -154.116
  P      -96.531    -304.237    -154.372
  C      -97.467    -302.308    -152.872
  O      -96.452    -303.278    -153.090
  C      -97.460    -301.851    -151.410
  O      -97.959    -302.904    -150.552
  C      -96.077    -301.519    -150.863
  O      -95.619    -300.253    -151.312
  C      -96.326    -301.575    -149.362
  O      -96.888    -300.339    -148.886
  C      -97.352    -302.720    -149.251
  N      -96.765    -303.962    -148.760
  C      -96.593    -304.060    -147.381
  O      -96.862    -303.150    -146.600
  N      -96.071    -305.243    -146.930
  C      -95.646    -306.284    -147.709
  O      -95.169    -307.309    -147.246
  C      -95.776    -306.086    -149.162
  C      -96.315    -304.951    -149.611
  O      -97.999    -304.867    -154.224
  O      -96.372    -303.572    -155.699
  H      -97.186    -300.500    -147.970
  H      -98.630    -304.351    -154.763
  H      -95.968    -305.351    -145.935
  H      -95.428    -306.878    -149.813
  H      -96.418    -304.790    -150.680
  H      -98.170    -302.431    -148.578
  H      -95.407    -301.750    -148.789
  H      -95.366    -302.305    -151.137
  H      -98.129    -300.986    -151.317
  H      -98.441    -302.746    -153.106
  H      -97.293    -301.457    -153.540
  P      -94.542    -300.258    -152.504
  C      -92.474    -298.751    -153.046
  O      -93.526    -299.068    -152.160
  O      -95.431    -299.708    -153.720
  O      -93.931    -301.601    -152.737
  H      -96.100    -299.067    -153.425
  H      -92.761    -298.924    -154.085
  H      -91.598    -299.365    -152.802
  H      -92.213    -297.695    -152.921
  H      -95.091    -307.453    -154.605
  H      -95.650    -306.473    -155.939
  H      -96.789    -307.068    -154.755

 3  4  5  6  7  8  9  10  11  12  13  23  28  29  30  31  32 0
 6-311+G(2d,p)
 ****
 33  34 0
 6-311+G(2d,p)
 ****
 1  2  14  15  16  17  18  19  20  21  22  24  25  26 0
 3-21G
 ****
 27  35  36  37  38  39  40  41  42  43  44  45 0
 3-21G
 ****


