%nproc=1
%NoSave
%Mem=1900MB
#P OB98/GEN NMR

erre ene a

0 1
  C      130.342      43.811     130.241
  O      131.095      44.710     131.029
  H      130.897      42.873     130.150
  H      130.183      44.223     129.239
  H      129.380      43.609     130.716
  P      130.482      46.180     131.238
  C      131.894      47.050     129.236
  O      130.606      46.934     129.827
  C      131.915      48.236     128.280
  O      133.279      48.541     127.904
  C      131.182      47.989     126.968
  O      129.774      48.105     127.112
  C      131.778      49.080     126.093
  O      131.109      50.338     126.286
  C      133.238      49.148     126.593
  N      134.168      48.508     125.666
  C      134.154      49.000     124.365
  O      133.412      49.912     123.992
  N      134.997      48.379     123.482
  C      135.806      47.311     123.761
  O      136.485      46.754     122.903
  C      135.786      46.843     125.159
  C      134.976      47.447     126.031
  O      131.576      46.900     132.157
  O      129.122      46.215     131.850
  H      131.266      46.936     133.080
  H      130.172      50.183     126.054
  H      134.996      48.711     122.531
  H      136.424      46.006     125.413
  H      134.930      47.105     127.062
  H      133.550      50.192     126.721
  H      131.693      48.835     125.033
  H      131.460      47.012     126.554
  H      131.496      49.111     128.798
  H      132.124      46.134     128.680
  H      132.639      47.175     130.030
  P      128.842      46.982     126.445
  C      128.161      48.621     124.505
  O      128.694      47.365     124.893
  O      127.419      47.345     127.079
  O      129.309      45.589     126.700
  H      127.289      48.304     127.188
  H      128.144      48.687     123.437
  H      128.772      49.405     124.901
  H      127.165      48.718     124.884

 6  7  8  9  10  11  12  13  14  15  16  27  31  32  33  34  35 0
 6-311+G(2d,p)
 ****
 36  37 0
 6-311+G(2d,p)
 ****
 1  2  3  4  5  17  18  19  20  21  22  23  24  25 0
 3-21G
 ****
 26  28  29  30  38  39  40  41  42  43  44  45 0
 3-21G
 ****


