%nproc=1
%NoSave
%Mem=1900MB
#P OB98/GEN NMR

erre ene a

0 1
  C      -75.892      89.809      14.113
  O      -76.076      89.244      12.824
  P      -76.768      87.806      12.641
  C      -76.186      85.484      13.618
  O      -75.698      86.756      13.210
  C      -75.284      84.383      13.069
  O      -75.500      84.243      11.651
  C      -73.792      84.645      13.238
  O      -73.379      84.407      14.575
  C      -73.212      83.697      12.193
  O      -73.179      82.354      12.702
  C      -74.254      83.801      11.059
  N      -73.836      84.696       9.984
  C      -73.051      84.130       8.973
  O      -72.745      82.939       8.997
  N      -72.652      84.927       7.927
  C      -72.986      86.181       7.902
  N      -72.622      86.906       6.808
  C      -73.764      86.830       8.975
  C      -74.156      86.035       9.970
  O      -77.252      87.515      11.260
  O      -77.916      87.767      13.750
  H      -72.618      82.371      13.503
  H      -78.779      88.137      13.439
  H      -74.007      87.881       8.916
  H      -74.748      86.430      10.786
  H      -74.454      82.809      10.635
  H      -72.197      83.962      11.877
  H      -73.552      85.681      12.966
  H      -75.562      83.437      13.554
  H      -72.247      86.384       6.024
  H      -77.197      85.353      13.217
  H      -73.076      87.783       6.580
  H      -76.232      85.448      14.712
  P      -72.247      85.368      15.183
  C      -69.993      86.212      14.215
  O      -70.957      85.174      14.245
  O      -71.856      84.650      16.558
  O      -72.683      86.782      15.387
  H      -72.283      85.100      17.310
  H      -69.090      85.830      13.733
  H      -69.744      86.539      15.227
  H      -70.372      87.056      13.631
  H      -75.417      90.763      14.020
  H      -75.277      89.161      14.702
  H      -76.843      89.929      14.589

 3  4  5  6  7  8  9  10  11  12  13  23  27  28  29  30  32 0
 6-311+G(2d,p)
 ****
 34  35 0
 6-311+G(2d,p)
 ****
 1  2  14  15  16  17  18  19  20  21  22  24  25  26 0
 3-21G
 ****
 31  33  36  37  38  39  40  41  42  43  44  45  46 0
 3-21G
 ****


