%nproc=1
%NoSave
%Mem=1900MB
#P OB98/GEN NMR

erre ene a

0 1
  C      311.363    -455.624     -88.518
  O      311.848    -455.578     -89.858
  P      311.154    -454.593     -90.914
  C      309.433    -456.156     -92.046
  O      309.642    -455.060     -91.164
  C      307.929    -456.352     -92.289
  O      307.278    -456.920     -91.124
  C      307.197    -455.042     -92.546
  O      307.475    -454.388     -93.771
  C      305.754    -455.427     -92.268
  O      305.138    -456.048     -93.396
  C      305.910    -456.442     -91.109
  N      305.568    -455.872     -89.805
  C      304.209    -455.804     -89.511
  O      303.330    -456.153     -90.291
  N      303.894    -455.283     -88.281
  C      304.775    -454.798     -87.361
  O      304.434    -454.317     -86.285
  C      306.197    -454.872     -87.742
  C      306.522    -455.393     -88.931
  O      311.946    -454.307     -92.148
  O      310.965    -453.247     -90.056
  H      305.273    -455.461     -94.162
  H      311.181    -452.487     -90.641
  H      302.910    -455.229     -88.050
  H      306.931    -454.490     -87.038
  H      307.569    -455.456     -89.226
  H      305.274    -457.309     -91.275
  H      305.142    -454.546     -92.018
  H      307.495    -454.330     -91.762
  H      307.802    -457.058     -93.116
  H      309.869    -457.062     -91.621
  H      309.963    -455.964     -92.982
  P      308.653    -453.326     -93.949
  C      306.952    -451.398     -93.587
  O      308.210    -451.947     -93.255
  O      309.294    -453.236     -95.299
  O      309.745    -453.882     -92.906
  H      310.638    -453.695     -93.258
  H      306.833    -450.456     -93.033
  H      306.154    -452.083     -93.297
  H      306.902    -451.185     -94.658
  H      311.937    -456.329     -87.955
  H      310.335    -455.922     -88.521
  H      311.452    -454.655     -88.073

 3  4  5  6  7  8  9  10  11  12  13  23  28  29  30  31  32 0
 6-311+G(2d,p)
 ****
 33  34 0
 6-311+G(2d,p)
 ****
 1  2  14  15  16  17  18  19  20  21  22  24  25  26  27 0
 3-21G
 ****
 35  36  37  38  39  40  41  42  43  44  45 0
 3-21G
 ****


