%nproc=1
%NoSave
%Mem=1900MB
#P OB98/GEN NMR

erre ene a

0 1
  C     -454.022      87.212     208.188
  O     -454.588      88.249     208.959
  H     -454.774      86.855     207.479
  H     -453.735      86.385     208.843
  H     -453.150      87.559     207.629
  P     -453.613      89.249     209.739
  C     -453.776      88.002     211.994
  O     -452.922      88.436     210.941
  C     -452.984      87.345     213.126
  O     -452.404      86.109     212.658
  C     -451.826      88.218     213.617
  O     -452.180      89.150     214.623
  C     -450.851      87.174     214.156
  O     -451.125      86.867     215.534
  C     -451.117      85.950     213.272
  N     -447.590      82.859     211.231
  C     -448.302      82.705     212.406
  N     -448.009      81.607     213.137
  N     -449.205      83.557     212.820
  C     -449.318      84.653     212.034
  C     -448.651      84.926     210.859
  C     -447.713      83.940     210.370
  O     -447.068      84.021     209.329
  N     -448.998      86.157     210.356
  C     -449.802      86.660     211.272
  N     -450.089      85.754     212.265
  O     -454.622      90.222     210.517
  O     -452.676      90.039     208.877
  H     -450.314      86.480     215.922
  H     -454.221      91.106     210.603
  H     -446.934      82.155     210.952
  H     -450.239      87.650     211.241
  H     -451.158      85.031     213.867
  H     -449.823      87.542     214.114
  H     -447.267      80.966     212.912
  H     -451.345      88.731     212.780
  H     -448.368      81.554     214.092
  H     -453.669      87.089     213.944
  H     -454.467      87.283     211.556
  H     -454.365      88.840     212.375
  P     -451.359      90.508     214.809
  C     -449.783      89.559     216.681
  O     -449.925      90.154     215.410
  O     -452.106      91.218     216.031
  O     -451.293      91.389     213.604
  H     -452.730      91.894     215.708
  H     -448.745      89.407     216.890
  H     -450.290      88.617     216.693
  H     -450.206      90.201     217.425

 6  7  8  9  10  11  12  13  14  15  26  29  33  34 0
 6-311+G(2d,p)
 ****
 36  38  39  40  41 0
 6-311+G(2d,p)
 ****
 1  2  3  4  5  16  17  18  19  20  21  22  23  24  25 0
 3-21G
 ****
 27  28  30  31  32  35  37  42  43  44  45  46  47 0
 3-21G
 ****
 48  49 0
 3-21G
 ****


