%nproc=1
%NoSave
%Mem=1900MB
#P OB98/GEN NMR

erre ene a

0 1
  C      -15.775     -31.948     301.315
  O      -16.943     -32.252     302.056
  H      -15.647     -30.861     301.292
  H      -15.875     -32.314     300.289
  H      -14.898     -32.397     301.789
  P      -17.295     -33.808     302.222
  C      -18.053     -35.687     300.580
  O      -17.615     -34.348     300.743
  C      -19.238     -35.747     299.607
  O      -20.347     -34.983     300.171
  C      -18.938     -35.136     298.223
  O      -19.768     -35.807     297.258
  C      -19.423     -33.708     298.408
  O      -19.550     -33.053     297.163
  C      -20.705     -33.976     299.199
  N      -24.219     -30.268     298.977
  C      -23.990     -31.337     298.189
  N      -23.043     -32.291     298.317
  C      -22.291     -32.067     299.408
  C      -22.412     -31.025     300.313
  C      -23.428     -30.087     300.063
  N      -23.661     -28.990     300.865
  N      -21.458     -31.133     301.312
  C      -20.777     -32.219     301.012
  N      -21.238     -32.813     299.869
  O      -18.728     -33.785     302.939
  O      -16.300     -34.616     302.984
  H      -18.674     -32.950     296.731
  H      -18.618     -33.880     303.904
  H      -24.659     -31.444     297.329
  H      -19.937     -32.617     301.576
  H      -21.498     -34.390     298.566
  H      -18.714     -33.127     298.999
  H      -17.890     -35.227     297.929
  H      -19.579     -36.786     299.522
  H      -18.357     -36.074     301.560
  H      -17.231     -36.296     300.191
  H      -24.401     -28.356     300.604
  H      -23.070     -28.833     301.664
  P      -19.217     -37.144     296.548
  C      -17.875     -37.736     294.377
  O      -18.439     -36.729     295.208
  O      -20.564     -37.790     295.959
  O      -18.511     -38.111     297.442
  H      -20.461     -38.759     295.902
  H      -17.399     -37.278     293.535
  H      -18.649     -38.392     294.036
  H      -17.153     -38.295     294.934

 6  7  8  9  10  11  12  13  14  15  25  28  32  33  34  35 0
 6-311+G(2d,p)
 ****
 36  37  40 0
 6-311+G(2d,p)
 ****
 1  2  3  4  5  16  17  18  19  20  21  22  23  24 0
 3-21G
 ****
 26  27  29  30  31  38  39 41  42  43  44  45  46  47  48 0
 3-21G
 ****


