%nproc=1
%NoSave
%Mem=1900MB
#P OB98/GEN NMR

erre ene a

0 1
  C       16.680    -339.594     407.208
  O       15.979    -340.813     407.360
  H       16.854    -339.163     408.197
  H       16.088    -338.892     406.614
  H       17.646    -339.770     406.725
  P       15.642    -341.614     406.013
  C       17.662    -341.180     404.423
  O       17.054    -342.035     405.380
  C       18.635    -341.971     403.542
  O       19.732    -342.456     404.375
  C       18.007    -343.208     402.876
  O       18.709    -343.449     401.644
  C       18.347    -344.304     403.877
  O       18.150    -345.580     403.316
  C       19.774    -343.893     404.226
  N       21.691    -348.168     406.279
  C       21.352    -347.853     405.010
  N       20.859    -346.690     404.537
  C       20.747    -345.783     405.523
  C       21.064    -345.954     406.863
  C       21.556    -347.219     407.237
  N       21.898    -347.544     408.529
  N       20.811    -344.795     407.575
  C       20.349    -343.944     406.680
  N       20.286    -344.500     405.432
  O       15.108    -340.471     405.028
  O       14.661    -342.731     406.158
  H       17.199    -345.735     403.126
  H       14.133    -340.435     405.057
  H       21.488    -348.644     404.277
  H       20.042    -342.924     406.882
  H       20.474    -344.122     403.417
  H       17.697    -344.241     404.757
  H       16.941    -343.097     402.674
  H       19.076    -341.296     402.799
  H       18.201    -340.390     404.957
  H       16.891    -340.726     403.798
  H       22.226    -348.475     408.717
  H       21.783    -346.853     409.255
  P       18.050    -342.959     400.261
  C       17.854    -340.655     399.028
  O       18.568    -341.472     399.948
  O       16.530    -342.693     400.692
  O       18.119    -343.931     399.130
  H       15.944    -342.821     399.920
  H       18.339    -339.705     398.944
  H       16.853    -340.514     399.378
  H       17.833    -341.131     398.070

 6  7  8  9  10  11  12  13  14  15  25  28  32  33  34  35 0
 6-311+G(2d,p)
 ****
 36  37  40 0
 6-311+G(2d,p)
 ****
 1  2  3  4  5  16  17  18  19  20  21  22  23  24 0
 3-21G
 ****
 26  27  29  30  31  38  39 41  42  43  44  45  46  47  48 0
 3-21G
 ****


