%nproc=1
%NoSave
%Mem=1900MB
#P OB98/GEN NMR

erre ene a

0 1
  C       78.797    -659.443     719.642
  O       80.183    -659.562     719.988
  P       80.679    -658.903     721.367
  C       80.358    -661.150     722.643
  O       80.075    -659.759     722.582
  C       81.154    -661.476     723.917
  O       80.408    -661.154     725.106
  C       81.503    -662.953     724.050
  O       82.659    -663.283     723.286
  C       81.808    -663.043     725.534
  O       83.141    -662.562     725.796
  C       80.770    -662.098     726.140
  N       78.478    -664.321     730.147
  C       79.708    -663.788     729.993
  N       80.253    -663.231     728.890
  C       79.380    -663.242     727.874
  C       78.086    -663.760     727.873
  C       77.635    -664.323     729.079
  N       76.381    -664.865     729.234
  N       77.506    -663.605     726.641
  C       78.409    -662.997     725.911
  N       79.562    -662.764     726.605
  O       79.849    -657.536     721.434
  O       82.148    -658.657     721.420
  H       83.760    -663.243     725.450
  H       80.383    -656.844     721.857
  H       80.349    -663.807     730.879
  H       78.270    -662.701     724.879
  H       81.171    -661.525     726.990
  H       81.768    -664.078     725.909
  H       80.640    -663.587     723.794
  H       82.075    -660.880     723.906
  H       80.931    -661.452     721.762
  H       76.118    -665.221     730.136
  H       75.745    -664.841     728.441
  H       79.419    -661.703     722.613
  P       82.637    -664.689     722.501
  C       82.204    -663.672     720.147
  O       81.709    -664.455     721.216
  O       81.751    -665.625     723.457
  O       83.992    -665.270     722.244
  H       82.036    -666.557     723.373
  H       81.598    -663.863     719.256
  H       83.237    -663.926     719.924
  H       82.135    -662.611     720.404
  H       78.621    -659.927     718.704
  H       78.537    -658.408     719.563
  H       78.199    -659.905     720.400

 3  4  5  6  7  8  9  10  11  12  22  25  29  30  31  32 0
 6-311+G(2d,p)
 ****
 33  36  37 0
 6-311+G(2d,p)
 ****
 1  2  13  14  15  16  17  18  19  20  21  23  24  26 0
 3-21G
 ****
 27  28  34  35  38  39  40  41  42  43  44  45  46  47  48 0
 3-21G
 ****


