%nproc=1
%NoSave
%Mem=1900MB
#P OB98/GEN NMR

erre ene a

0 1
  C      185.756     226.521     487.542
  O      185.867     226.932     488.891
  H      185.796     227.410     486.904
  H      184.804     226.011     487.370
  H      186.587     225.862     487.275
  P      185.754     225.820     490.039
  C      187.172     227.311     491.613
  O      185.957     226.587     491.432
  C      187.140     228.093     492.927
  O      186.388     229.313     492.769
  C      186.477     227.346     494.080
  O      187.339     226.339     494.584
  C      186.194     228.495     495.034
  O      187.378     228.886     495.743
  C      185.760     229.608     494.039
  N      184.312     229.723     493.892
  C      183.626     230.300     494.965
  O      184.239     230.659     495.969
  N      182.257     230.431     494.876
  C      181.639     230.063     493.798
  N      180.290     230.225     493.771
  C      182.331     229.484     492.628
  C      183.649     229.333     492.743
  O      186.617     224.607     489.871
  O      184.199     225.439     490.056
  H      187.119     229.642     496.311
  H      184.030     224.662     489.491
  H      181.772     229.202     491.742
  H      184.232     228.918     491.930
  H      186.143     230.583     494.367
  H      185.441     228.240     495.781
  H      185.522     226.915     493.758
  H      188.172     228.370     493.179
  H      179.862     230.647     494.588
  H      187.263     228.003     490.769
  H      179.730     230.131     492.937
  H      188.030     226.634     491.599
  P      186.925     224.791     494.556
  C      188.601     223.729     492.914
  O      188.287     223.983     494.278
  O      185.793     224.448     493.648
  O      186.635     224.449     496.094
  H      185.749     224.802     496.365
  H      189.523     223.189     492.855
  H      188.698     224.658     492.391
  H      187.819     223.149     492.470

 6  7  8  9  10  11  12  13  14  15  16  26  30  31  32  33  35 0
 6-311+G(2d,p)
 ****
 37  38 0
 6-311+G(2d,p)
 ****
 1  2  3  4  5  17  18  19  20  21  22  23  24  25 0
 3-21G
 ****
 27  28  29  34  36  39  40  41  42  43  44  45  46 0
 3-21G
 ****


