%nproc=1
%NoSave
%Mem=1900MB
#P OB98/GEN NMR

erre ene a

0 1
  C      670.029    -718.668    -517.928
  O      669.344    -718.162    -519.064
  H      669.741    -718.066    -517.063
  H      671.104    -718.588    -518.067
  H      669.750    -719.709    -517.751
  P      669.662    -718.884    -520.464
  C      668.317    -720.525    -521.936
  O      668.476    -719.959    -520.637
  C      666.845    -720.535    -522.335
  O      666.085    -721.292    -521.352
  C      666.233    -719.126    -522.409
  O      665.318    -719.069    -523.504
  C      665.453    -719.002    -521.097
  O      664.392    -718.077    -521.190
  C      665.031    -720.452    -520.868
  N      661.423    -721.591    -517.415
  C      661.405    -721.519    -518.781
  N      662.411    -721.237    -519.615
  C      663.550    -721.032    -518.941
  C      663.747    -721.065    -517.568
  C      662.585    -721.346    -516.782
  N      662.597    -721.398    -515.404
  N      665.055    -720.774    -517.246
  C      665.644    -720.573    -518.403
  N      664.792    -720.718    -519.459
  O      671.042    -719.415    -520.622
  O      669.241    -717.741    -521.517
  H      663.815    -718.166    -520.398
  H      668.404    -717.326    -521.264
  H      660.438    -721.721    -519.242
  H      666.696    -720.336    -518.524
  H      664.102    -720.703    -521.395
  H      666.130    -718.671    -520.305
  H      666.991    -718.344    -522.507
  H      666.736    -721.061    -523.294
  H      668.693    -721.566    -521.940
  H      661.749    -721.624    -514.922
  H      663.478    -721.257    -514.903
  H      668.914    -719.939    -522.639
  P      665.575    -717.963    -524.653
  C      667.231    -717.896    -526.632
  O      666.311    -718.688    -525.883
  O      666.192    -716.690    -524.211
  O      664.106    -717.731    -525.233
  H      664.000    -716.780    -525.446
  H      667.653    -718.487    -527.418
  H      668.012    -717.551    -525.987
  H      666.719    -717.056    -527.053

 6  7  8  9  10  11  12  13  14  15  25  28  32  33  34  35 0
 6-311+G(2d,p)
 ****
 36  39  40 0
 6-311+G(2d,p)
 ****
 1  2  3  4  5  16  17  18  19  20  21  22  23  24 0
 3-21G
 ****
 26  27  29  30  31  37  38  41  42  43  44  45  46  47 0
 3-21G
 ****
 48 0
 3-21G
 ****


