%nproc=1
%NoSave
%Mem=1900MB
#P OB98/GEN NMR

erre ene a

0 1
  C      377.317     297.656    -930.668
  O      377.139     296.811    -929.547
  H      376.580     298.461    -930.620
  H      377.164     297.099    -931.596
  H      378.320     298.096    -930.657
  P      378.052     295.502    -929.422
  C      379.869     296.524    -927.887
  O      379.550     296.012    -929.180
  C      381.095     295.817    -927.321
  O      380.818     294.421    -927.099
  C      382.319     295.862    -928.230
  O      382.921     297.140    -928.198
  C      383.147     294.736    -927.635
  O      383.817     295.166    -926.437
  C      382.050     293.692    -927.302
  N      381.888     292.667    -928.332
  C      382.382     291.396    -928.014
  O      382.926     291.192    -926.929
  N      382.255     290.398    -928.947
  C      381.655     290.629    -930.077
  N      381.555     289.597    -930.952
  C      381.094     291.943    -930.432
  C      381.255     292.912    -929.526
  O      377.912     294.492    -930.523
  O      377.646     294.882    -928.004
  H      384.258     294.372    -926.077
  H      376.951     294.208    -928.111
  H      380.593     292.091    -931.373
  H      380.870     293.911    -929.709
  H      382.279     293.186    -926.358
  H      383.917     294.380    -928.320
  H      382.036     295.578    -929.250
  H      381.320     296.267    -926.339
  H      381.945     288.705    -930.657
  H      378.997     296.340    -927.250
  H      380.979     289.616    -931.779
  H      380.041     297.606    -927.930
  P      383.738     297.711    -929.452
  C      381.771     299.314    -929.879
  O      382.638     298.340    -930.444
  O      384.676     296.745    -930.092
  O      384.460     299.015    -928.867
  H      385.247     298.757    -928.326
  H      381.087     299.659    -930.626
  H      382.349     300.138    -929.517
  H      381.224     298.878    -929.069

 6  7  8  9  10  11  12  13  14  15  16  26  30  31  32  33  35 0
 6-311+G(2d,p)
 ****
 37  38 0
 6-311+G(2d,p)
 ****
 1  2  3  4  5  17  18  19  20  21  22  23  24  25 0
 3-21G
 ****
 27  28  29  34  36  39  40  41  42  43  44  45  46 0
 3-21G
 ****


