%nproc=1
%NoSave
%Mem=1900MB
#P OB98/GEN NMR

erre ene a

0 1
  C      568.767    -536.648     521.819
  O      570.099    -537.067     521.625
  H      568.579    -535.767     521.201
  H      568.607    -536.380     522.866
  H      568.068    -537.439     521.526
  P      570.552    -538.442     522.310
  C      570.776    -539.702     520.051
  O      570.118    -539.625     521.307
  C      569.984    -540.602     519.097
  O      568.599    -540.176     519.084
  C      570.505    -540.570     517.656
  O      570.411    -541.888     517.113
  C      569.521    -539.655     516.942
  O      569.454    -539.910     515.541
  C      568.224    -539.932     517.721
  N      567.287    -538.819     517.593
  C      566.607    -538.700     516.382
  O      566.816    -539.503     515.472
  N      565.744    -537.650     516.200
  C      565.643    -536.743     517.126
  N      564.797    -535.703     516.870
  C      566.393    -536.787     518.393
  C      567.185    -537.847     518.563
  O      569.529    -538.605     523.529
  O      571.976    -538.500     522.754
  H      568.727    -539.362     515.167
  H      569.941    -539.066     524.285
  H      566.296    -535.991     519.118
  H      567.777    -537.965     519.464
  H      567.742    -540.844     517.338
  H      569.831    -538.610     517.079
  H      571.535    -540.214     517.576
  H      570.000    -541.625     519.497
  H      564.310    -535.696     515.983
  H      571.773    -540.128     520.197
  H      564.672    -534.923     517.499
  H      570.880    -538.696     519.624
  P      571.502    -542.960     517.607
  C      569.890    -544.813     518.446
  O      570.846    -543.821     518.788
  O      572.589    -542.052     518.354
  O      572.114    -543.751     516.498
  H      573.402    -541.998     517.827
  H      569.546    -545.299     519.335
  H      570.341    -545.534     517.797
  H      569.062    -544.354     517.948

 6  7  8  9  10  11  12  13  14  15  16  26  30  31  32  33  35 0
 6-311+G(2d,p)
 ****
 37  38 0
 6-311+G(2d,p)
 ****
 1  2  3  4  5  17  18  19  20  21  22  23  24  25 0
 3-21G
 ****
 27  28  29  34  36  39  40  41  42  43  44  45  46 0
 3-21G
 ****


