%nproc=1
%NoSave
%Mem=1900MB
#P OB98/GEN NMR

erre ene a

0 1
  C        0.071     -89.676     150.611
  O        1.151     -89.096     149.909
  H        0.442     -90.062     151.564
  H       -0.361     -90.505     150.043
  H       -0.698     -88.925     150.816
  P        0.888     -88.555     148.419
  C        0.862     -90.960     147.454
  O        1.511     -89.697     147.472
  C        1.897     -92.083     147.422
  O        1.262     -93.377     147.516
  C        2.732     -92.153     146.146
  O        3.717     -91.134     146.060
  C        3.339     -93.540     146.303
  O        4.399     -93.493     147.274
  C        2.127     -94.338     146.848
  N        1.392     -95.043     145.797
  C        1.373     -96.441     145.876
  O        1.952     -97.024     146.792
  N        0.727     -97.153     144.894
  C        0.165     -96.524     143.905
  N       -0.419     -97.276     142.933
  C        0.146     -95.051     143.791
  C        0.777     -94.383     144.755
  O        1.349     -87.163     148.130
  O       -0.683     -88.768     148.189
  H        5.125     -92.978     146.880
  H       -0.898     -88.437     147.284
  H       -0.327     -94.577     142.943
  H        0.819     -93.296     144.733
  H        2.447     -95.063     147.602
  H        3.762     -93.932     145.375
  H        2.089     -92.152     145.259
  H        2.531     -91.973     148.314
  H       -0.350     -98.282     143.023
  H        0.215     -90.998     146.570
  H       -0.623     -96.890     142.017
  H        0.249     -91.082     148.351
  P        3.933     -90.419     144.640
  C        6.174     -91.669     144.172
  O        5.515     -90.428     144.355
  O        3.616     -88.886     144.959
  O        3.111     -90.956     143.509
  H        2.682     -88.671     144.762
  H        7.215     -91.497     143.994
  H        5.748     -92.179     143.333
  H        6.057     -92.268     145.051

 6  7  8  9  10  11  12  13  14  15  16  26  30  31  32  33  35 0
 6-311+G(2d,p)
 ****
 37  38 0
 6-311+G(2d,p)
 ****
 1  2  3  4  5  17  18  19  20  21  22  23  24  25 0
 3-21G
 ****
 27  28  29  34  36  39  40  41  42  43  44  45  46 0
 3-21G
 ****


