%nproc=1
%NoSave
%Mem=1900MB
#P OB98/GEN NMR

erre ene a

0 1
  C     -256.885     466.828     141.895
  O     -257.852     466.077     141.186
  H     -257.050     467.892     141.695
  H     -255.874     466.566     141.572
  H     -256.990     466.655     142.969
  P     -257.653     464.487     141.091
  C     -258.485     464.287     143.524
  O     -257.434     463.993     142.608
  C     -258.052     464.011     144.965
  O     -259.005     464.568     145.897
  C     -257.972     462.535     145.321
  O     -256.960     461.821     144.653
  C     -257.979     462.580     146.841
  O     -256.682     462.841     147.382
  C     -258.916     463.785     147.111
  N     -260.234     463.366     147.579
  C     -260.399     463.312     148.959
  O     -259.503     463.573     149.764
  N     -261.634     462.914     149.390
  C     -262.675     462.525     148.603
  O     -263.755     462.161     149.057
  C     -262.428     462.567     147.153
  C     -261.236     462.980     146.715
  O     -256.588     464.024     140.143
  O     -259.113     463.939     140.737
  H     -256.434     463.742     147.099
  H     -259.076     463.006     140.414
  H     -261.782     462.885     150.390
  H     -263.228     462.258     146.496
  H     -261.028     463.021     145.643
  H     -258.477     464.443     147.872
  H     -258.329     461.644     147.279
  H     -258.918     462.062     145.021
  H     -257.092     464.515     145.135
  H     -259.335     463.644     143.272
  H     -258.786     465.334     143.412
  P     -256.794     460.236     144.729
  C     -258.060     459.699     142.505
  O     -258.001     459.560     143.919
  O     -256.433     459.662     146.056
  O     -255.546     459.993     143.732
  H     -255.035     459.236     144.088
  H     -258.924     459.189     142.132
  H     -257.180     459.276     142.068
  H     -258.121     460.737     142.251

 6  7  8  9  10  11  12  13  14  15  16  26  31  32  33  34  35 0
 6-311+G(2d,p)
 ****
 36  37 0
 6-311+G(2d,p)
 ****
 1  2  3  4  5  17  18  19  20  21  22  23  24  25 0
 3-21G
 ****
 27  28  29  30  38  39  40  41  42  43  44  45 0
 3-21G
 ****


