%nproc=1
%NoSave
%Mem=1900MB
#P OB98/GEN NMR

erre ene a

0 1
  C      107.530     102.085     253.677
  O      106.534     101.204     254.158
  H      107.257     102.410     252.670
  H      108.492     101.567     253.630
  H      107.611     102.965     254.322
  P      106.605     100.785     255.704
  C      108.681     100.413     257.222
  O      108.083     100.207     255.951
  C      109.969      99.591     257.332
  O      109.623      98.178     257.250
  C      110.989      99.879     256.223
  O      112.304      99.790     256.783
  C      110.781      98.727     255.255
  O      111.904      98.454     254.428
  C      110.455      97.590     256.229
  N      109.774      96.470     255.579
  C      110.459      95.812     254.558
  O      111.619      96.045     254.227
  N      109.748      94.837     253.906
  C      108.450      94.485     254.150
  O      107.862      93.617     253.515
  C      107.781      95.222     255.229
  C      108.462      96.168     255.881
  O      105.680      99.479     255.765
  O      106.177     101.836     256.675
  H      104.753      99.726     255.950
  H      112.653      98.234     255.016
  H      110.227      94.350     253.168
  H      106.749      94.977     255.443
  H      107.988      96.745     256.670
  H      111.370      97.231     256.716
  H      109.926      98.940     254.603
  H      110.861     100.854     255.736
  H      110.409      99.757     258.323
  H      107.987     100.093     258.007
  H      108.898     101.479     257.353
  P      113.227     101.103     256.717
  C      115.131     101.890     255.093
  O      114.175     100.895     255.440
  O      114.187     100.869     257.969
  O      112.441     102.368     256.746
  H      114.409      99.930     258.115
  H      115.667     101.580     254.221
  H      115.816     102.025     255.904
  H      114.628     102.813     254.894

 6  7  8  9  10  11  12  13  14  15  16  27  31  32  33  34  35 0
 6-311+G(2d,p)
 ****
 36  37 0
 6-311+G(2d,p)
 ****
 1  2  3  4  5  17  18  19  20  21  22  23  24  25 0
 3-21G
 ****
 26  28  29  30  38  39  40  41  42  43  44  45 0
 3-21G
 ****


