%nproc=1
%NoSave
%Mem=1900MB
#P OB98/GEN NMR

erre ene a

0 1
  C      193.751     524.329    -303.188
  O      193.751     525.531    -302.446
  H      193.951     523.479    -302.534
  H      192.765     524.196    -303.645
  H      194.503     524.375    -303.985
  P      195.105     525.897    -301.665
  C      193.872     525.676    -299.384
  O      194.627     526.504    -300.257
  C      193.296     526.525    -298.254
  O      194.365     527.133    -297.496
  C      192.426     527.680    -298.739
  O      191.098     527.277    -299.039
  C      192.464     528.593    -297.524
  O      191.587     528.084    -296.508
  C      193.932     528.463    -297.084
  N      195.453     533.349    -296.944
  C      194.589     532.645    -296.173
  N      194.256     531.345    -296.259
  C      194.917     530.749    -297.267
  C      195.832     531.335    -298.131
  C      196.091     532.708    -297.944
  N      196.945     533.430    -298.751
  N      196.290     530.410    -299.051
  C      195.674     529.287    -298.729
  N      194.812     529.452    -297.678
  O      195.660     527.180    -302.444
  O      196.112     524.800    -301.555
  H      190.674     528.148    -296.855
  H      196.587     527.356    -302.198
  H      194.104     533.212    -295.379
  H      195.812     528.335    -299.228
  H      194.054     528.527    -295.993
  H      192.138     529.614    -297.750
  H      192.883     528.201    -299.591
  H      192.738     525.871    -297.577
  H      194.527     524.906    -298.964
  H      196.948     534.433    -298.628
  H      197.309     532.996    -299.583
  H      193.062     525.199    -299.941
  P      190.680     527.192    -300.589
  C      189.050     529.211    -300.591
  O      189.201     527.801    -300.693
  O      190.449     525.620    -300.803
  O      191.690     527.753    -301.536
  H      190.678     525.358    -301.717
  H      188.014     529.466    -300.678
  H      189.602     529.686    -301.375
  H      189.420     529.542    -299.643

 6  7  8  9  10  11  12  13  14  15  25  28  32  33  34  35 0
 6-311+G(2d,p)
 ****
 36  39  40 0
 6-311+G(2d,p)
 ****
 1  2  3  4  5  16  17  18  19  20  21  22  23  24 0
 3-21G
 ****
 26  27  29  30  31  37  38  41  42  43  44  45  46  47 0
 3-21G
 ****
 48 0
 3-21G
 ****


