%nproc=1
%NoSave
%Mem=1900MB
#P OB98/GEN NMR

erre ene a

0 1
  C      -49.872    -260.937     201.711
  O      -50.082    -260.184     202.905
  P      -48.786    -259.552     203.612
  C      -50.090    -257.368     204.152
  O      -49.361    -258.476     204.665
  C      -50.939    -256.728     205.248
  O      -52.119    -257.537     205.487
  C      -50.245    -256.612     206.596
  O      -49.380    -255.476     206.653
  C      -51.439    -256.439     207.532
  O      -51.876    -255.060     207.517
  C      -52.501    -257.340     206.876
  N      -53.230    -259.788     211.260
  C      -53.172    -258.431     210.996
  N      -53.362    -257.611     212.058
  N      -52.949    -257.931     209.811
  C      -52.817    -258.863     208.844
  C      -52.850    -260.238     208.977
  C      -53.058    -260.783     210.297
  O      -53.044    -261.981     210.602
  N      -52.700    -260.856     207.756
  C      -52.598    -259.867     206.888
  N      -52.640    -258.644     207.506
  O      -48.147    -258.637     202.461
  O      -47.807    -260.540     204.144
  H      -51.093    -254.515     207.757
  H      -47.191    -258.522     202.620
  H      -53.430    -260.126     212.185
  H      -52.504    -259.998     205.822
  H      -53.485    -256.845     206.867
  H      -51.208    -256.693     208.567
  H      -53.672    -257.931     212.961
  H      -49.710    -257.537     206.846
  H      -53.368    -256.605     211.879
  H      -51.279    -255.741     204.893
  H      -50.754    -257.718     203.347
  H      -49.391    -256.637     203.731
  P      -48.176    -255.546     207.716
  C      -46.932    -253.775     206.270
  O      -47.406    -254.158     207.556
  O      -47.176    -256.618     207.072
  O      -48.599    -255.920     209.096
  H      -46.647    -257.045     207.766
  H      -47.631    -254.087     205.482
  H      -45.953    -254.231     206.087
  H      -46.834    -252.681     206.227
  H      -50.811    -261.298     201.347
  H      -49.228    -261.766     201.921
  H      -49.419    -260.312     200.970

 3  4  5  6  7  8  9  10  11  12  23  26  30  31  33  0
 6-311+G(2d,p)
 ****
 35  36  37  38 0
 6-311+G(2d,p)
 ****
 1  2  13  14  15  16  17  18  19  20  21  22  24  25  27  28  29 0
 3-21G
 ****
 32  34  39  40  41  42  43  44  45  46  47  48  49 0
 3-21G
 ****


