%nproc=1
%NoSave
%Mem=1900MB
#P OB98/GEN NMR

erre ene a

0 1
  C     -111.884      14.505      55.565
  O     -113.273      14.626      55.791
  P     -114.228      15.552      54.906
  C     -116.803      15.721      54.592
  O     -115.688      14.880      54.872
  C     -118.019      15.420      55.478
  O     -118.665      14.216      55.014
  C     -117.571      15.144      56.915
  O     -117.331      16.216      57.805
  C     -118.533      14.083      57.435
  O     -119.588      14.637      58.222
  C     -119.092      13.455      56.156
  N     -119.285       8.728      57.982
  C     -120.058       9.822      58.318
  N     -120.846       9.678      59.405
  N     -120.038      10.953      57.661
  C     -119.129      10.977      56.655
  C     -118.319       9.952      56.220
  C     -118.381       8.696      56.930
  O     -117.653       7.729      56.717
  N     -117.473      10.361      55.222
  C     -117.740      11.643      55.079
  N     -118.709      12.070      55.954
  O     -113.656      16.086      53.631
  O     -114.456      16.809      55.893
  H     -120.165      13.906      58.509
  H     -114.530      17.608      55.337
  H     -119.285       7.907      58.575
  H     -117.240      12.309      54.385
  H     -120.190      13.485      56.159
  H     -118.010      13.368      58.080
  H     -120.778       8.876      60.018
  H     -116.601      14.634      56.850
  H     -121.294      10.505      59.780
  H     -118.771      16.209      55.395
  H     -117.055      15.590      53.534
  H     -116.513      16.769      54.723
  P     -116.845      16.098      59.324
  C     -114.798      16.724      60.727
  O     -115.420      16.813      59.456
  O     -116.484      14.550      59.508
  O     -117.856      16.521      60.342
  H     -116.521      14.312      60.455
  H     -114.009      17.480      60.794
  H     -114.350      15.732      60.845
  H     -115.521      16.893      61.529
  H     -111.463      13.832      56.282
  H     -111.422      15.465      55.663
  H     -111.715      14.127      54.579

 3  4  5  6  7  8  9  10  11  12  23  26  30  31 0
 6-311+G(2d,p)
 ****
 33  35  36  37  38 0
 6-311+G(2d,p)
 ****
 1  2  13  14  15  16  17  18  19  20  21  22  24  25 0
 3-21G
 ****
 27  28  29  32  34  39  40  41  42  43  44  45  46  47  48  49 0
 3-21G
 ****


