%nproc=1
%NoSave
%Mem=1900MB
#P OB98/GEN NMR

erre ene a

0 1
  C       14.674     -69.500       2.419
  O       15.885     -68.889       2.819
  P       16.742     -69.487       4.029
  C       18.835     -70.245       2.762
  O       17.657     -70.668       3.437
  C       20.057     -70.322       3.676
  O       20.234     -71.697       4.114
  C       21.374     -69.876       3.025
  O       22.155     -69.262       4.054
  C       22.011     -71.195       2.621
  O       23.416     -71.095       2.428
  C       21.592     -72.071       3.797
  N       24.210     -76.405       4.490
  C       24.446     -75.139       4.894
  N       23.714     -74.034       4.646
  C       22.637     -74.334       3.902
  C       22.282     -75.571       3.391
  C       23.118     -76.652       3.729
  N       22.874     -77.955       3.355
  N       21.138     -75.465       2.623
  C       20.812     -74.190       2.673
  N       21.653     -73.482       3.486
  O       15.958     -69.858       5.243
  O       17.804     -68.337       4.357
  H       23.724     -71.902       1.973
  H       17.557     -67.885       5.188
  H       25.336     -74.994       5.500
  H       19.989     -73.731       2.145
  H       22.209     -71.893       4.685
  H       21.565     -71.547       1.684
  H       21.244     -69.195       2.179
  H       19.852     -69.723       4.572
  H       18.688     -69.208       2.443
  H       23.461     -78.665       3.762
  H       21.945     -78.204       3.022
  H       18.992     -70.861       1.870
  P       23.343     -68.259       3.664
  C       21.727     -66.342       3.156
  O       22.726     -67.200       2.636
  O       24.613     -68.911       3.228
  O       23.551     -67.391       4.997
  H       24.421     -66.950       4.965
  H       20.770     -66.869       3.176
  H       21.638     -65.466       2.507
  H       21.978     -66.011       4.167
  H       14.253     -68.956       1.599
  H       13.986     -69.499       3.239
  H       14.866     -70.508       2.116

 3  4  5  6  7  8  9  10  11  12  22  25  29  30  31  32 0
 6-311+G(2d,p)
 ****
 33  36  37 0
 6-311+G(2d,p)
 ****
 1  2  13  14  15  16  17  18  19  20  21  23  24  26 0
 3-21G
 ****
 27  28  34  35  38  39  40  41  42  43  44  45  46  47  48 0
 3-21G
 ****


