%nproc=1
%NoSave
%Mem=1900MB
#P OB98/GEN NMR

erre ene a

0 1
  C     -258.154     629.411      54.047
  O     -259.575     629.320      54.001
  P     -260.225     627.844      53.852
  C     -260.230     626.023      52.010
  O     -259.802     627.317      52.412
  C     -260.982     626.100      50.688
  O     -260.176     626.699      49.654
  C     -261.405     624.740      50.121
  O     -262.592     624.249      50.736
  C     -261.668     625.100      48.658
  O     -262.972     625.698      48.533
  C     -260.554     626.120      48.389
  N     -258.847     623.912      44.147
  C     -260.061     624.563      44.393
  N     -260.945     624.571      43.378
  N     -260.366     625.160      45.521
  C     -259.370     625.048      46.448
  C     -258.126     624.461      46.326
  C     -257.821     623.797      45.069
  O     -256.804     623.166      44.825
  N     -257.400     624.565      47.490
  C     -258.177     625.255      48.308
  N     -259.401     625.543      47.736
  O     -261.793     628.150      53.695
  O     -259.941     626.922      54.996
  H     -263.107     625.874      47.580
  H     -262.300     627.338      53.870
  H     -258.680     623.476      43.272
  H     -257.917     625.550      49.304
  H     -260.916     626.955      47.761
  H     -261.646     624.227      48.006
  H     -260.808     624.080      42.503
  H     -260.584     624.022      50.185
  H     -261.873     624.981      43.535
  H     -261.873     626.734      50.835
  H     -260.881     625.609      52.772
  H     -259.354     625.365      51.904
  P     -262.557     622.715      51.212
  C     -261.849     620.495      50.063
  O     -262.123     621.868      49.923
  O     -264.115     622.367      51.411
  O     -261.770     622.469      52.466
  H     -264.234     621.661      52.047
  H     -261.832     620.025      49.076
  H     -262.619     620.013      50.662
  H     -260.877     620.340      50.542
  H     -257.865     630.437      54.146
  H     -257.742     629.010      53.145
  H     -257.788     628.855      54.885

 3  4  5  6  7  8  9  10  11  12  23  26  30  31 0
 6-311+G(2d,p)
 ****
 33  35  36  37  38 0
 6-311+G(2d,p)
 ****
 1  2  13  14  15  16  17  18  19  20  21  22  24  25 0
 3-21G
 ****
 27  28  29  32  34  39  40  41  42  43  44  45  46  47  48  49 0
 3-21G
 ****


