%nproc=1
%NoSave
%Mem=1900MB
#P OB98/GEN NMR

erre ene a

0 1
  C       -4.402      38.139      -1.803
  O       -4.843      39.334      -2.420
  H       -5.220      37.733      -1.202
  H       -3.552      38.346      -1.148
  H       -4.122      37.406      -2.562
  P       -3.788      40.078      -3.372
  C       -4.674      39.402      -5.709
  O       -3.721      39.156      -4.683
  C       -4.224      38.764      -7.020
  O       -2.943      39.280      -7.420
  C       -4.060      37.251      -6.957
  O       -5.313      36.600      -7.089
  C       -3.171      37.012      -8.168
  O       -3.969      37.025      -9.368
  C       -2.239      38.237      -8.146
  N        1.874      35.180      -7.855
  C        0.679      35.021      -8.463
  N       -0.382      35.856      -8.463
  C       -0.122      36.957      -7.740
  C        1.050      37.258      -7.065
  C        2.087      36.314      -7.148
  N        3.309      36.485      -6.535
  N        0.950      38.478      -6.431
  C       -0.242      38.930      -6.763
  N       -0.944      38.030      -7.524
  O       -2.485      40.431      -2.743
  O       -4.659      41.324      -3.876
  H       -4.671      36.357      -9.260
  H       -5.580      41.055      -4.036
  H        0.558      34.101      -9.027
  H       -0.636      39.903      -6.494
  H       -2.042      38.614      -9.156
  H       -2.669      36.043      -8.130
  H       -3.525      36.943      -6.054
  H       -4.946      39.048      -7.796
  H       -4.815      40.479      -5.847
  H        3.928      35.690      -6.503
  H        3.420      37.269      -5.909
  H       -5.625      38.968      -5.384
  P       -5.661      35.311      -6.203
  C       -7.510      36.418      -4.801
  O       -6.202      35.857      -4.794
  O       -4.569      34.304      -6.099
  O       -6.972      34.699      -6.881
  H       -6.937      33.724      -6.867
  H       -7.763      36.746      -3.814
  H       -8.214      35.679      -5.122
  H       -7.537      37.251      -5.472

 6  7  8  9  10  11  12  13  14  15  25  28  32  33  34  35 0
 6-311+G(2d,p)
 ****
 36  39  40 0
 6-311+G(2d,p)
 ****
 1  2  3  4  5  16  17  18  19  20  21  22  23  24 0
 3-21G
 ****
 26  27  29  30  31  37  38  41  42  43  44  45  46  47 0
 3-21G
 ****
 48 0
 3-21G
 ****


