%nproc=1
%NoSave
%Mem=1900MB
#P OB98/GEN NMR

erre ene a

0 1
  C      174.117    -315.066     337.290
  O      174.344    -316.310     337.927
  H      175.076    -314.565     337.139
  H      173.483    -314.434     337.918
  H      173.640    -315.222     336.320
  P      173.051    -317.220     338.205
  C      174.184    -319.455     337.493
  O      173.609    -318.689     338.539
  C      174.759    -320.767     338.050
  O      175.937    -320.459     338.851
  C      173.782    -321.529     338.969
  O      174.056    -322.937     338.866
  C      174.199    -321.039     340.345
  O      173.690    -321.882     341.348
  C      175.716    -321.022     340.162
  N      179.314    -321.182     343.777
  C      178.916    -322.090     342.861
  N      177.953    -321.970     341.926
  C      177.397    -320.742     341.975
  C      177.696    -319.714     342.846
  C      178.701    -319.968     343.795
  N      179.103    -319.050     344.742
  N      176.891    -318.615     342.601
  C      176.126    -318.979     341.585
  N      176.397    -320.255     341.178
  O      172.399    -317.379     336.753
  O      172.079    -316.678     339.201
  H      172.712    -321.834     341.390
  H      171.728    -316.684     336.608
  H      179.437    -323.049     342.888
  H      175.358    -318.364     341.123
  H      176.139    -322.037     340.171
  H      173.813    -320.032     340.537
  H      172.727    -321.341     338.731
  H      175.101    -321.398     337.217
  H      174.987    -318.870     337.027
  H      173.418    -319.685     336.742
  H      179.810    -319.327     345.397
  H      178.632    -318.159     344.785
  P      172.832    -323.957     338.611
  C      174.102    -325.612     337.039
  O      173.394    -325.426     338.254
  O      172.274    -323.454     337.193
  O      171.750    -323.931     339.636
  H      171.298    -323.396     337.231
  H      174.404    -326.635     336.955
  H      174.968    -324.983     337.031
  H      173.469    -325.358     336.215

 6  7  8  9  10  11  12  13  14  15  25  28  32  33  34  35 0
 6-311+G(2d,p)
 ****
 36  37  40 0
 6-311+G(2d,p)
 ****
 1  2  3  4  5  16  17  18  19  20  21  22  23  24 0
 3-21G
 ****
 26  27  29  30  31  38  39 41  42  43  44  45  46  47  48 0
 3-21G
 ****


