%nproc=1
%NoSave
%Mem=1900MB
#P OB98/GEN NMR

erre ene a

0 1
  C       57.458      14.154     203.329
  O       57.819      13.648     204.611
  P       56.871      13.634     205.891
  C       57.486      11.238     206.782
  O       57.496      12.645     206.980
  C       58.260      10.518     207.896
  O       59.689      10.735     207.688
  C       57.920      11.055     209.290
  O       57.777      10.036     210.275
  C       59.000      12.098     209.524
  O       59.179      12.430     210.892
  C       60.201      11.475     208.820
  N       64.992      13.189     209.220
  C       64.342      12.228     209.967
  N       65.049      11.654     210.963
  N       63.101      11.871     209.767
  C       62.485      12.576     208.793
  C       63.018      13.562     207.995
  C       64.407      13.914     208.191
  O       65.038      14.745     207.544
  N       62.089      14.042     207.107
  C       60.994      13.364     207.381
  N       61.186      12.453     208.394
  O       55.410      13.497     205.620
  O       57.105      15.086     206.555
  H       59.871      13.115     210.944
  H       56.257      15.335     206.975
  H       65.956      13.409     209.403
  H       60.044      13.479     206.873
  H       60.737      10.773     209.463
  H       58.688      13.017     209.011
  H       65.962      11.967     211.250
  H       56.941      11.547     209.289
  H       64.503      11.119     211.641
  H       58.068       9.443     207.821
  H       57.976      11.066     205.817
  H       56.464      10.865     206.706
  P       56.441       9.346     210.810
  C       57.249       6.921     210.617
  O       56.827       7.950     211.491
  O       55.652       8.896     209.495
  O       55.579      10.226     211.654
  H       54.790       9.356     209.453
  H       57.223       5.970     211.155
  H       58.274       7.115     210.289
  H       56.590       6.854     209.748
  H       58.282      14.039     202.656
  H       57.207      15.191     203.413
  H       56.614      13.612     202.956

 3  4  5  6  7  8  9  10  11  12  23  26  30  31 0
 6-311+G(2d,p)
 ****
 33  35  36  37  38 0
 6-311+G(2d,p)
 ****
 1  2  13  14  15  16  17  18  19  20  21  22  24  25 0
 3-21G
 ****
 27  28  29  32  34  39  40  41  42  43  44  45  46  47  48  49 0
 3-21G
 ****


