%nproc=1
%NoSave
%Mem=1900MB
#P OB98/GEN NMR

erre ene a

0 1
  C       54.170      34.190       7.790
  O       55.371      33.453       7.627
  P       56.061      32.730       8.880
  C       57.601      34.786       8.985
  O       56.792      33.881       9.727
  C       58.710      35.362       9.864
  O       58.113      36.233      10.855
  C       59.508      34.299      10.609
  O       60.874      34.718      10.689
  C       58.926      34.305      12.013
  O       59.886      33.843      12.977
  C       58.514      35.775      12.160
  N       57.116      36.305      17.074
  C       58.330      36.181      16.493
  N       58.627      36.017      15.185
  C       57.509      36.045      14.441
  C       56.202      36.169      14.890
  C       56.021      36.301      16.279
  N       54.782      36.440      16.865
  N       55.315      36.123      13.830
  C       56.075      35.995      12.766
  N       57.408      35.954      13.081
  O       56.929      31.567       8.538
  O       54.842      32.305       9.821
  H       59.421      33.780      13.837
  H       55.013      31.435      10.229
  H       59.179      36.212      17.170
  H       55.714      35.917      11.751
  H       59.351      36.396      12.497
  H       58.058      33.638      12.054
  H       59.446      33.312      10.139
  H       59.367      35.977       9.239
  H       56.967      35.601       8.624
  H       54.758      36.651      17.851
  H       53.987      36.612      16.264
  H       58.025      34.267       8.118
  P       61.972      33.625      10.246
  C       61.945      32.369      12.526
  O       61.652      32.339      11.149
  O       63.361      34.170      10.302
  O       61.458      33.246       8.777
  H       60.496      33.417       8.676
  H       61.695      31.396      12.959
  H       61.343      33.133      13.025
  H       63.008      32.566      12.690
  H       53.869      34.594       6.846
  H       54.333      34.988       8.484
  H       53.403      33.544       8.163

 3  4  5  6  7  8  9  10  11  12  22  25  29  30  31  32 0
 6-311+G(2d,p)
 ****
 33  36  37 0
 6-311+G(2d,p)
 ****
 1  2  13  14  15  16  17  18  19  20  21  23  24  26 0
 3-21G
 ****
 27  28  34  35  38  39  40  41  42  43  44  45  46  47  48 0
 3-21G
 ****


