%nproc=1
%NoSave
%Mem=1900MB
#P OB98/GEN NMR

erre ene a

0 1
  C      -86.208     127.206     409.590
  O      -87.171     127.483     408.569
  P      -86.704     127.506     407.036
  C      -87.694     129.842     406.505
  O      -87.697     128.448     406.198
  C      -88.918     130.516     405.880
  O      -90.135     130.165     406.583
  C      -88.858     132.042     405.954
  O      -87.891     132.683     405.141
  C      -90.312     132.435     405.748
  O      -90.660     132.460     404.363
  C      -91.047     131.277     406.467
  N      -91.573     131.675     407.780
  C      -92.898     131.349     408.038
  O      -93.626     130.795     407.211
  N      -93.381     131.711     409.266
  C      -92.681     132.383     410.232
  O      -93.167     132.704     411.311
  C      -91.288     132.724     409.896
  C      -90.806     132.362     408.704
  O      -86.417     126.178     406.423
  O      -85.362     128.395     407.094
  H      -90.520     133.376     404.050
  H      -84.707     127.984     406.495
  H      -94.332     131.469     409.480
  H      -90.712     133.266     410.635
  H      -89.782     132.602     408.439
  H      -91.899     130.929     405.867
  H      -90.522     133.430     406.152
  H      -88.601     132.315     406.987
  H      -89.022     130.168     404.851
  H      -86.776     130.299     406.130
  H      -87.683     129.966     407.593
  P      -87.260     134.113     405.486
  C      -87.312     134.860     403.001
  O      -86.536     134.678     404.171
  O      -86.527     134.240     406.782
  O      -88.579     135.032     405.555
  H      -88.433     135.733     406.231
  H      -86.656     135.235     402.202
  H      -88.096     135.598     403.178
  H      -87.745     133.911     402.675
  H      -86.686     127.230     410.547
  H      -85.434     127.944     409.560
  H      -85.784     126.237     409.427

 3  4  5  6  7  8  9  10  11  12  13  23  28  29  30  31  32 0
 6-311+G(2d,p)
 ****
 33  34 0
 6-311+G(2d,p)
 ****
 1  2  14  15  16  17  18  19  20  21  22  24  25  26  27 0
 3-21G
 ****
 35  36  37  38  39  40  41  42  43  44  45 0
 3-21G
 ****


