%nproc=1
%NoSave
%Mem=1900MB
#P OB98/GEN NMR

erre ene a

0 1
  C      118.916      33.126      84.416
  O      117.942      32.802      83.445
  H      118.465      33.029      85.407
  H      119.249      34.159      84.287
  H      119.769      32.446      84.353
  P      118.371      32.769      81.901
  C      118.059      30.223      82.073
  O      118.882      31.277      81.597
  C      118.122      29.024      81.130
  O      117.679      29.442      79.813
  C      119.526      28.427      80.987
  O      119.406      27.007      80.889
  C      120.014      28.988      79.666
  O      120.990      28.152      79.047
  C      118.714      29.099      78.871
  N      121.283      30.497      74.753
  C      121.399      29.365      75.535
  N      122.359      28.481      75.188
  N      120.642      29.121      76.572
  C      119.715      30.083      76.799
  C      119.501      31.246      76.099
  C      120.355      31.512      74.961
  O      120.309      32.502      74.240
  N      118.482      31.979      76.655
  C      118.083      31.260      77.688
  N      118.807      30.106      77.824
  O      119.317      33.845      81.475
  O      116.983      32.850      81.111
  H      121.608      27.862      79.753
  H      116.820      33.757      80.792
  H      121.900      30.639      73.971
  H      117.287      31.530      78.369
  H      118.442      28.156      78.383
  H      120.462      29.977      79.827
  H      122.968      28.594      74.392
  H      120.188      28.690      81.817
  H      122.448      27.631      75.732
  H      117.408      28.268      81.480
  H      117.028      30.591      82.132
  H      118.387      29.930      83.076
  P      119.763      26.113      82.171
  C      117.663      24.621      82.101
  O      118.389      25.608      82.828
  O      120.742      26.712      83.124
  O      120.345      24.768      81.514
  H      121.000      24.379      82.125
  H      116.772      24.367      82.637
  H      118.269      23.747      81.983
  H      117.402      25.007      81.138

 6  7  8  9  10  11  12  13  14  15  26  29  33  34 0
 6-311+G(2d,p)
 ****
 36  38  39  40  41 0
 6-311+G(2d,p)
 ****
 1  2  3  4  5  16  17  18  19  20  21  22  23  24  25 0
 3-21G
 ****
 27  28  30  31  32  35  37  42  43  44  45  46  47 0
 3-21G
 ****
 48  49 0
 3-21G
 ****


