%nproc=1
%NoSave
%Mem=1900MB
#P OB98/GEN NMR

erre ene a

0 1
  C      149.232     532.678    -675.239
  O      150.095     533.682    -675.791
  P      149.844     535.198    -675.305
  C      152.325     535.982    -675.364
  O      151.019     536.100    -675.915
  C      153.370     536.523    -676.332
  O      153.556     535.632    -677.451
  C      153.010     537.869    -676.953
  O      153.284     538.943    -676.061
  C      153.954     537.902    -678.146
  O      155.258     538.362    -677.727
  C      154.014     536.423    -678.569
  N      153.939     534.911    -683.400
  C      155.001     535.106    -682.560
  N      156.233     534.814    -683.068
  N      154.886     535.521    -681.322
  C      153.605     535.734    -680.945
  C      152.462     535.585    -681.701
  C      152.606     535.139    -683.065
  O      151.691     534.986    -683.879
  N      151.341     535.878    -680.974
  C      151.794     536.189    -679.775
  N      153.171     536.128    -679.708
  O      150.202     535.135    -673.743
  O      148.453     535.688    -675.540
  H      155.156     539.293    -677.438
  H      149.712     535.822    -673.254
  H      154.082     534.583    -684.347
  H      151.187     536.460    -678.923
  H      155.037     536.109    -678.797
  H      153.617     538.586    -678.934
  H      156.384     534.422    -683.976
  H      151.972     537.872    -677.300
  H      157.020     534.920    -682.437
  H      154.325     536.605    -675.792
  H      152.541     534.941    -675.140
  H      152.352     536.519    -674.407
  P      152.010     539.679    -675.397
  C      153.204     539.707    -673.084
  O      152.595     540.445    -674.123
  O      151.191     538.454    -674.765
  O      151.193     540.481    -676.340
  H      150.244     538.668    -674.730
  H      153.853     538.924    -673.492
  H      152.428     539.240    -672.465
  H      153.806     540.375    -672.468
  H      149.498     531.721    -675.637
  H      148.217     532.901    -675.494
  H      149.337     532.663    -674.174

 3  4  5  6  7  8  9  10  11  12  23  26  30  31  33  0
 6-311+G(2d,p)
 ****
 35  36  37  38 0
 6-311+G(2d,p)
 ****
 1  2  13  14  15  16  17  18  19  20  21  22  24  25  27  28  29 0
 3-21G
 ****
 32  34  39  40  41  42  43  44  45  46  47  48  49 0
 3-21G
 ****


