%nproc=1
%NoSave
%Mem=1900MB
#P OB98/GEN NMR

erre ene a

0 1
  C     -366.497     402.040     -23.969
  O     -366.520     402.588     -25.298
  P     -365.286     402.480     -26.317
  C     -365.470     400.191     -27.502
  O     -365.746     401.581     -27.565
  C     -365.069     399.652     -28.883
  O     -364.829     398.224     -28.814
  C     -366.125     399.798     -29.966
  O     -366.259     401.133     -30.417
  C     -365.604     398.829     -31.024
  O     -364.612     399.448     -31.858
  C     -364.952     397.723     -30.165
  N     -365.692     396.472     -30.195
  C     -365.489     395.650     -31.304
  O     -364.778     396.023     -32.236
  N     -366.112     394.423     -31.331
  C     -366.941     394.097     -30.394
  N     -367.515     392.865     -30.471
  C     -367.291     394.996     -29.282
  C     -366.635     396.153     -29.241
  O     -364.014     402.022     -25.684
  O     -365.126     403.948     -26.940
  H     -364.200     404.083     -27.223
  H     -363.817     399.578     -31.302
  H     -368.026     394.703     -28.541
  H     -366.819     396.869     -28.445
  H     -363.924     397.540     -30.500
  H     -366.399     398.467     -31.688
  H     -367.089     399.436     -29.585
  H     -364.138     400.149     -29.184
  H     -367.245     392.269     -31.242
  H     -366.375     399.667     -27.170
  H     -368.156     392.507     -29.777
  H     -364.677     400.009     -26.768
  P     -367.743     401.655     -30.715
  C     -368.566     402.684     -28.482
  O     -368.022     402.913     -29.766
  O     -368.677     400.503     -30.116
  O     -368.036     401.887     -32.164
  H     -369.448     400.364     -30.699
  H     -368.254     403.495     -27.817
  H     -368.229     401.730     -28.063
  H     -369.657     402.686     -28.544
  H     -367.431     402.238     -23.485
  H     -365.703     402.491     -23.411
  H     -366.340     400.983     -24.022

 3  4  5  6  7  8  9  10  11  12  13  24  27  28  29  30  32 0
 6-311+G(2d,p)
 ****
 34  35 0
 6-311+G(2d,p)
 ****
 1  2  14  15  16  17  18  19  20  21  22  23  25  26 0
 3-21G
 ****
 31  33  36  37  38  39  40  41  42  43  44  45  46 0
 3-21G
 ****


