%nproc=1
%NoSave
%Mem=1900MB
#P OB98/GEN NMR

erre ene a

0 1
  C     -497.490     463.689      57.488
  O     -497.465     464.878      56.715
  P     -498.187     464.848      55.280
  C     -497.328     464.067      52.954
  O     -497.356     463.832      54.358
  C     -496.890     462.808      52.201
  O     -495.448     462.667      52.328
  C     -497.528     461.506      52.708
  O     -497.710     460.665      51.561
  C     -496.447     460.959      53.622
  O     -496.596     459.586      53.931
  C     -495.198     461.332      52.827
  N     -491.140     458.516      54.151
  C     -492.139     458.294      53.269
  N     -493.184     459.094      52.963
  C     -493.125     460.236      53.668
  C     -492.182     460.596      54.616
  C     -491.148     459.674      54.850
  N     -490.130     459.900      55.759
  N     -492.471     461.832      55.155
  C     -493.573     462.217      54.542
  N     -493.993     461.296      53.620
  O     -497.827     466.281      54.668
  O     -499.664     464.611      55.322
  H     -497.469     459.423      54.341
  H     -498.582     466.652      54.170
  H     -492.100     457.346      52.736
  H     -494.107     463.136      54.733
  H     -495.051     460.671      51.962
  H     -496.480     461.504      54.572
  H     -498.494     461.661      53.197
  H     -497.111     462.954      51.137
  H     -496.614     464.865      52.736
  H     -489.557     459.102      55.997
  H     -490.263     460.662      56.413
  H     -498.318     464.399      52.626
  P     -499.086     459.854      51.404
  C     -499.757     457.420      51.876
  O     -498.750     458.400      52.001
  O     -499.089     459.562      49.829
  O     -500.309     460.536      51.915
  H     -498.247     459.175      49.534
  H     -499.359     456.463      52.230
  H     -500.057     457.312      50.829
  H     -500.621     457.690      52.490
  H     -496.975     463.853      58.412
  H     -497.009     462.901      56.947
  H     -498.505     463.415      57.689

 3  4  5  6  7  8  9  10  11  12  22  25  29  30  31  32 0
 6-311+G(2d,p)
 ****
 33  36  37 0
 6-311+G(2d,p)
 ****
 1  2  13  14  15  16  17  18  19  20  21  23  24  26 0
 3-21G
 ****
 27  28  34  35  38  39  40  41  42  43  44  45  46  47  48 0
 3-21G
 ****


