%nproc=1
%NoSave
%Mem=1900MB
#P OB98/GEN NMR

erre ene a

0 1
  C     -659.316     108.217     229.539
  O     -658.814     107.930     228.230
  P     -658.039     109.014     227.349
  C     -655.799     107.821     226.909
  O     -656.460     108.883     227.607
  C     -655.311     106.718     227.860
  O     -656.418     106.079     228.523
  C     -654.511     105.618     227.177
  O     -653.182     106.014     226.918
  C     -654.654     104.485     228.219
  O     -653.687     104.649     229.276
  C     -656.084     104.695     228.731
  N     -657.850      99.919     228.360
  C     -656.895     100.467     229.127
  N     -656.461     101.747     229.162
  C     -657.174     102.499     228.307
  C     -658.199     102.085     227.456
  C     -658.530     100.715     227.494
  N     -659.517     100.154     226.691
  N     -658.667     103.132     226.703
  C     -657.974     104.183     227.105
  N     -657.062     103.842     228.079
  O     -658.550     110.410     227.495
  O     -658.213     108.520     225.832
  H     -653.745     105.580     229.584
  H     -658.189     109.285     225.224
  H     -656.388      99.777     229.791
  H     -658.087     105.178     226.738
  H     -656.146     104.510     229.809
  H     -654.471     103.492     227.786
  H     -655.002     105.307     226.265
  H     -654.688     107.218     228.634
  H     -654.944     108.249     226.358
  H     -659.666      99.174     226.754
  H     -659.989     100.748     226.019
  H     -656.512     107.402     226.171
  P     -652.614     105.973     225.411
  C     -651.724     108.382     225.309
  O     -652.686     107.482     224.828
  O     -653.216     104.911     224.541
  O     -651.057     105.774     225.624
  H     -650.682     105.274     224.841
  H     -652.032     108.753     226.300
  H     -651.663     109.227     224.636
  H     -650.744     107.908     225.395
  H     -659.796     107.347     229.936
  H     -660.022     109.019     229.482
  H     -658.505     108.500     230.178

 3  4  5  6  7  8  9  10  11  12  22  25  29  30  31  32 0
 6-311+G(2d,p)
 ****
 33  36  37 0
 6-311+G(2d,p)
 ****
 1  2  13  14  15  16  17  18  19  20  21  23  24  26 0
 3-21G
 ****
 27  28  34  35  38  39  40  41  42  43  44  45  46  47  48 0
 3-21G
 ****


