%nproc=1
%NoSave
%Mem=1900MB
#P OB98/GEN NMR

erre ene a

0 1
  C      600.224    1354.050    -326.513
  O      601.206    1353.433    -327.342
  P      602.233    1354.328    -328.179
  C      604.413    1353.566    -327.033
  O      603.667    1353.607    -328.237
  C      605.361    1352.358    -327.047
  O      604.612    1351.116    -327.046
  C      606.220    1352.281    -328.297
  O      607.232    1353.273    -328.435
  C      606.644    1350.837    -328.322
  O      607.780    1350.617    -327.465
  C      605.399    1350.137    -327.749
  N      604.598    1349.450    -328.782
  C      605.307    1348.724    -329.731
  O      606.548    1348.664    -329.744
  N      604.575    1348.094    -330.680
  C      603.189    1348.138    -330.800
  O      602.582    1347.572    -331.690
  C      602.524    1348.948    -329.783
  C      603.229    1349.560    -328.836
  O      602.257    1355.781    -327.796
  O      601.689    1354.175    -329.686
  H      608.494    1351.216    -327.791
  H      601.749    1355.048    -330.117
  H      605.071    1347.542    -331.367
  H      601.433    1349.012    -329.848
  H      602.730    1350.146    -328.072
  H      605.687    1349.377    -326.996
  H      606.941    1350.514    -329.327
  H      605.556    1352.435    -329.176
  H      605.963    1352.367    -326.134
  H      603.752    1353.535    -326.167
  H      604.983    1354.513    -326.949
  P      607.982    1353.572    -329.819
  C      606.791    1355.843    -330.258
  O      608.019    1355.166    -330.028
  O      607.603    1352.730    -331.008
  O      609.514    1353.274    -329.426
  H      609.966    1352.908    -330.216
  H      606.994    1356.893    -330.413
  H      606.130    1355.736    -329.376
  H      606.303    1355.463    -331.151
  H      599.634    1353.295    -326.037
  H      599.592    1354.672    -327.112
  H      600.709    1354.646    -325.768

 3  4  5  6  7  8  9  10  11  12  13  23  28  29  30  31  32 0
 6-311+G(2d,p)
 ****
 33  34 0
 6-311+G(2d,p)
 ****
 1  2  14  15  16  17  18  19  20  21  22  24  25  26  27 0
 3-21G
 ****
 35  36  37  38  39  40  41  42  43  44  45 0
 3-21G
 ****


