%nproc=1
%NoSave
%Mem=1900MB
#P OB98/GEN NMR

erre ene a

0 1
  C       80.089    -190.235     -31.763
  O       80.684    -190.590     -32.996
  H       79.587    -191.115     -31.350
  H       79.349    -189.444     -31.915
  H       80.854    -189.901     -31.058
  P       81.424    -189.408     -33.793
  C       80.712    -187.753     -35.659
  O       80.289    -188.665     -34.653
  C       79.721    -186.599     -35.783
  O       79.386    -186.069     -34.483
  C       80.222    -185.427     -36.621
  O       80.016    -185.666     -38.003
  C       79.362    -184.291     -36.084
  O       78.045    -184.316     -36.675
  C       79.292    -184.623     -34.586
  N       81.482    -180.240     -33.350
  C       80.496    -180.516     -34.278
  N       80.045    -179.472     -35.009
  N       80.004    -181.707     -34.484
  C       80.591    -182.668     -33.727
  C       81.575    -182.522     -32.776
  C       82.068    -181.188     -32.517
  O       82.882    -180.869     -31.653
  N       81.892    -183.729     -32.203
  C       81.125    -184.601     -32.833
  N       80.322    -184.005     -33.772
  O       82.277    -190.185     -34.906
  O       82.295    -188.525     -32.967
  H       78.055    -183.796     -37.497
  H       83.133    -189.727     -35.020
  H       81.800    -179.300     -33.210
  H       81.112    -185.667     -32.643
  H       78.332    -184.328     -34.150
  H       79.787    -183.316     -36.324
  H       80.572    -178.616     -35.103
  H       81.278    -185.216     -36.408
  H       79.375    -179.687     -35.739
  H       78.794    -187.008     -36.211
  H       80.775    -188.284     -36.612
  H       81.701    -187.364     -35.397
  P       81.194    -185.287     -39.019
  C       82.431    -183.123     -39.757
  O       81.357    -183.689     -39.018
  O       80.544    -185.595     -40.451
  O       82.455    -186.060     -38.830
  H       80.918    -186.421     -40.812
  H       82.408    -182.058     -39.660
  H       82.334    -183.390     -40.789
  H       83.360    -183.495     -39.378

 6  7  8  9  10  11  12  13  14  15  26  29  33  34 0
 6-311+G(2d,p)
 ****
 36  38  39  40  41 0
 6-311+G(2d,p)
 ****
 1  2  3  4  5  16  17  18  19  20  21  22  23  24  25 0
 3-21G
 ****
 27  28  30  31  32  35  37  42  43  44  45  46  47 0
 3-21G
 ****
 48  49 0
 3-21G
 ****


