%nproc=1
%NoSave
%Mem=1900MB
#P OB98/GEN NMR

erre ene a

0 1
  C     -117.996     -50.098    -130.298
  O     -116.834     -50.219    -129.470
  P     -115.661     -49.154    -129.715
  C     -117.225     -47.271    -128.849
  O     -115.940     -47.875    -128.787
  C     -117.559     -46.611    -127.511
  O     -117.978     -47.580    -126.525
  C     -116.373     -45.885    -126.881
  O     -116.120     -44.655    -127.544
  C     -116.860     -45.744    -125.443
  O     -117.781     -44.646    -125.329
  C     -117.602     -47.070    -125.222
  N     -117.657     -50.617    -121.535
  C     -118.612     -49.782    -122.001
  N     -118.518     -48.863    -122.985
  C     -117.285     -48.864    -123.515
  C     -116.210     -49.660    -123.153
  C     -116.431     -50.572    -122.105
  N     -115.449     -51.414    -121.623
  N     -115.104     -49.368    -123.927
  C     -115.499     -48.399    -124.728
  N     -116.813     -48.067    -124.525
  O     -115.948     -48.620    -131.196
  O     -114.289     -49.736    -129.596
  H     -118.155     -44.670    -124.425
  H     -115.277     -48.967    -131.812
  H     -119.579     -49.862    -121.513
  H     -114.875     -47.909    -125.464
  H     -118.528     -46.933    -124.651
  H     -116.046     -45.566    -124.733
  H     -115.481     -46.522    -126.915
  H     -118.385     -45.902    -127.677
  H     -117.985     -48.017    -129.092
  H     -115.666     -51.980    -120.821
  H     -114.511     -51.324    -121.984
  H     -117.231     -46.538    -129.664
  P     -114.589     -44.190    -127.679
  C     -114.393     -44.572    -130.212
  O     -114.507     -43.612    -129.180
  O     -113.832     -45.589    -127.798
  O     -114.113     -43.272    -126.607
  H     -114.281     -46.191    -128.419
  H     -114.381     -44.053    -131.177
  H     -115.247     -45.259    -130.186
  H     -113.461     -45.138    -130.099
  H     -118.700     -50.861    -130.038
  H     -117.715     -50.206    -131.325
  H     -118.441     -49.136    -130.150

 3  4  5  6  7  8  9  10  11  12  22  25  29  30  31  32 0
 6-311+G(2d,p)
 ****
 33  36  37 0
 6-311+G(2d,p)
 ****
 1  2  13  14  15  16  17  18  19  20  21  23  24  26 0
 3-21G
 ****
 27  28  34  35  38  39  40  41  42  43  44  45  46  47  48 0
 3-21G
 ****


