%nproc=1
%NoSave
%Mem=1900MB
#P OB98/GEN NMR

erre ene a

0 1
  C       37.026     398.041     576.710
  O       37.410     397.473     575.465
  H       37.341     399.086     576.724
  H       37.514     397.514     577.539
  H       35.943     398.001     576.829
  P       37.122     395.920     575.212
  C       35.241     396.088     573.452
  O       36.603     395.797     573.684
  C       34.960     396.145     571.939
  O       35.667     397.301     571.414
  C       35.471     394.884     571.200
  O       34.470     394.270     570.392
  C       36.739     395.376     570.509
  O       37.090     394.655     569.337
  C       36.456     396.873     570.280
  N       37.665     397.686     570.151
  C       38.397     397.574     568.965
  O       38.095     396.845     568.012
  N       39.533     398.350     568.883
  C       39.991     399.186     569.865
  O       41.016     399.863     569.731
  C       39.198     399.241     571.094
  C       38.080     398.503     571.184
  O       36.246     395.253     576.220
  O       38.575     395.254     575.156
  H       37.190     393.718     569.577
  H       38.763     394.803     575.999
  H       40.065     398.279     568.029
  H       39.528     399.894     571.892
  H       37.462     398.533     572.078
  H       35.855     397.018     569.369
  H       37.586     395.278     571.212
  H       35.737     394.091     571.909
  H       33.888     396.302     571.778
  H       35.007     397.038     573.914
  H       34.597     395.314     573.903
  P       34.120     392.713     570.396
  C       33.022     392.369     572.749
  O       32.851     392.480     571.337
  O       35.292     391.784     570.581
  O       33.536     392.467     568.901
  H       33.795     391.550     568.654
  H       32.070     392.217     573.213
  H       33.463     393.268     573.127
  H       33.662     391.539     572.967

 6  7  8  9  10  11  12  13  14  15  16  26  31  32  33  34  35 0
 6-311+G(2d,p)
 ****
 36  37 0
 6-311+G(2d,p)
 ****
 1  2  3  4  5  17  18  19  20  21  22  23  24  25 0
 3-21G
 ****
 27  28  29  30  38  39  40  41  42  43  44  45 0
 3-21G
 ****


