%nproc=1
%NoSave
%Mem=1900MB
#P OB98/GEN NMR

erre ene a

0 1
  C      188.744     392.491    -318.800
  O      188.333     392.419    -317.450
  H      189.244     393.447    -318.964
  H      187.870     392.432    -319.457
  H      189.440     391.681    -319.031
  P      187.732     391.015    -316.950
  C      189.573     390.751    -315.097
  O      188.199     390.862    -315.423
  C      189.883     391.518    -313.810
  O      189.989     392.928    -314.124
  C      188.816     391.360    -312.727
  O      189.459     391.351    -311.451
  C      187.989     392.631    -312.861
  O      187.291     392.948    -311.659
  C      189.070     393.646    -313.278
  N      188.507     394.815    -313.952
  C      189.296     395.968    -313.979
  O      190.400     395.972    -313.440
  N      188.799     397.095    -314.576
  C      187.594     397.098    -315.048
  N      187.147     398.257    -315.606
  C      186.706     395.919    -315.001
  C      187.225     394.820    -314.451
  O      188.651     389.968    -317.738
  O      186.269     390.853    -317.188
  H      186.593     392.271    -311.519
  H      189.596     390.192    -317.721
  H      185.703     395.971    -315.396
  H      186.647     393.906    -314.382
  H      189.630     393.993    -312.397
  H      187.251     392.518    -313.659
  H      188.221     390.454    -312.848
  H      190.866     391.200    -313.443
  H      187.778     399.047    -315.598
  H      190.192     391.143    -315.912
  H      186.208     398.388    -315.952
  H      189.808     389.691    -314.971
  P      188.657     390.844    -310.165
  C      190.197     388.852    -309.571
  O      189.671     390.107    -309.162
  O      187.389     390.112    -310.441
  O      188.342     392.217    -309.384
  H      187.430     392.159    -309.038
  H      190.853     388.476    -308.814
  H      190.740     388.974    -310.485
  H      189.394     388.161    -309.722

 6  7  8  9  10  11  12  13  14  15  16  26  30  31  32  33  35 0
 6-311+G(2d,p)
 ****
 37  38 0
 6-311+G(2d,p)
 ****
 1  2  3  4  5  17  18  19  20  21  22  23  24  25 0
 3-21G
 ****
 27  28  29  34  36  39  40  41  42  43  44  45  46 0
 3-21G
 ****


