%nproc=1
%NoSave
%Mem=1900MB
#P OB98/GEN NMR

erre ene a

0 1
  C      319.689     -12.812      -9.177
  O      318.716     -11.926      -9.696
  H      319.858     -13.611      -9.903
  H      319.333     -13.252      -8.241
  H      320.630     -12.283      -9.007
  P      318.338     -10.667      -8.779
  C      320.289      -8.985      -9.181
  O      318.966      -9.384      -9.507
  C      320.598      -7.611      -9.787
  O      321.885      -7.153      -9.274
  C      320.709      -7.618     -11.320
  O      320.326      -6.316     -11.795
  C      322.202      -7.813     -11.521
  O      322.576      -7.527     -12.848
  C      322.726      -6.896     -10.420
  N      327.532      -6.837     -12.160
  C      326.364      -6.482     -12.735
  N      325.125      -6.514     -12.205
  C      325.163      -6.950     -10.934
  C      326.278      -7.338     -10.212
  C      327.512      -7.275     -10.879
  N      328.704      -7.643     -10.298
  N      325.919      -7.730      -8.934
  C      324.610      -7.578      -8.890
  N      324.111      -7.117     -10.076
  O      319.260     -10.862      -7.486
  O      316.894     -10.542      -8.423
  H      322.242      -8.216     -13.461
  H      318.757     -11.316      -6.785
  H      326.433      -6.128     -13.761
  H      323.980      -7.793      -8.036
  H      322.614      -5.838     -10.683
  H      322.487      -8.853     -11.331
  H      320.085      -8.379     -11.797
  H      319.847      -6.891      -9.443
  H      320.984      -9.732      -9.579
  H      320.397      -8.936      -8.094
  H      329.544      -7.583     -10.851
  H      328.702      -7.988      -9.350
  P      318.781      -6.032     -12.139
  C      317.547      -6.003      -9.832
  O      318.113      -5.260     -10.901
  O      318.135      -7.495     -12.002
  O      318.511      -5.461     -13.491
  H      317.354      -7.562     -12.583
  H      317.151      -5.330      -9.101
  H      318.302      -6.614      -9.383
  H      316.761      -6.625     -10.207

 6  7  8  9  10  11  12  13  14  15  25  28  32  33  34  35 0
 6-311+G(2d,p)
 ****
 36  37  40 0
 6-311+G(2d,p)
 ****
 1  2  3  4  5  16  17  18  19  20  21  22  23  24 0
 3-21G
 ****
 26  27  29  30  31  38  39 41  42  43  44  45  46  47  48 0
 3-21G
 ****


