%nproc=1
%NoSave
%Mem=1900MB
#P OB98/GEN NMR

erre ene a

0 1
  C      343.502       7.114    -115.698
  O      344.172       7.373    -116.921
  P      344.490       8.906    -117.281
  C      346.223      10.614    -116.374
  O      345.436       9.460    -116.108
  C      346.363      11.492    -115.128
  O      345.160      12.283    -114.973
  C      346.585      10.708    -113.832
  O      347.488      11.456    -113.018
  C      345.215      10.709    -113.180
  O      345.304      10.534    -111.768
  C      344.671      12.072    -113.634
  N      343.213      12.129    -113.582
  C      342.634      12.372    -112.335
  O      343.341      12.450    -111.331
  N      341.268      12.469    -112.248
  C      340.538      12.235    -113.294
  N      339.191      12.346    -113.158
  C      341.107      11.851    -114.603
  C      342.436      11.837    -114.680
  O      343.092       9.634    -117.002
  O      344.978       9.131    -118.672
  H      345.797      11.300    -111.397
  H      342.968      10.390    -117.607
  H      340.451      11.630    -115.434
  H      342.940      11.593    -115.605
  H      345.070      12.877    -113.003
  H      344.605       9.895    -113.591
  H      346.987       9.705    -114.007
  H      347.192      12.191    -115.294
  H      338.824      12.596    -112.248
  H      345.736      11.206    -117.154
  H      338.543      12.181    -113.919
  H      347.206      10.308    -116.743
  P      348.424      10.639    -112.003
  C      350.167       8.791    -112.375
  O      348.994       9.409    -112.864
  O      347.335       9.906    -111.082
  O      349.404      11.399    -111.176
  H      347.781       9.414    -110.371
  H      350.363       7.896    -112.973
  H      350.041       8.497    -111.330
  H      351.018       9.472    -112.477
  H      343.356       6.060    -115.588
  H      342.552       7.607    -115.700
  H      344.092       7.480    -114.884

 3  4  5  6  7  8  9  10  11  12  13  21  23  27  28  29  30  32 0
 6-311+G(2d,p)
 ****
 34  35 0
 6-311+G(2d,p)
 ****
 1  2  14  15  16  17  18  19  20  22  24  25  26 0
 3-21G
 ****
 31  33  36  37  38  39  40  41  42  43  44  45  46 0
 3-21G
 ****


