%nproc=1
%NoSave
%Mem=1900MB
#P OB98/GEN NMR

erre ene a

0 1
  C     -366.828     108.809      58.004
  O     -366.117     108.521      59.191
  H     -366.270     109.558      57.436
  H     -367.812     109.217      58.253
  H     -366.945     107.915      57.385
  P     -366.512     107.216      60.028
  C     -365.866     105.239      58.502
  O     -365.492     106.052      59.604
  C     -364.846     104.110      58.277
  O     -363.556     104.685      57.955
  C     -364.664     103.290      59.558
  O     -364.296     101.939      59.284
  C     -363.504     103.994      60.244
  O     -362.827     103.166      61.186
  C     -362.656     104.401      59.043
  N     -358.197     106.116      60.818
  C     -358.721     104.844      60.871
  N     -357.972     103.908      61.497
  N     -359.888     104.521      60.366
  C     -360.556     105.572      59.838
  C     -360.152     106.886      59.752
  C     -358.846     107.222      60.278
  O     -358.335     108.342      60.275
  N     -361.114     107.672      59.165
  C     -362.102     106.839      58.904
  N     -361.806     105.552      59.281
  O     -367.888     106.735      59.359
  O     -366.663     107.417      61.508
  H     -362.077     103.679      61.541
  H     -368.414     106.216      59.993
  H     -357.289     106.312      61.206
  H     -363.044     107.116      58.444
  H     -361.998     103.570      58.733
  H     -363.901     104.855      60.797
  H     -357.163     104.143      62.046
  H     -365.561     103.294      60.177
  H     -358.460     103.061      61.798
  H     -365.146     103.497      57.419
  H     -365.911     105.885      57.621
  H     -366.866     104.823      58.656
  P     -365.226     100.782      59.882
  C     -366.272     100.334      57.513
  O     -365.642      99.814      58.672
  O     -366.578     101.543      60.256
  O     -364.631     100.074      61.055
  H     -366.647     101.660      61.224
  H     -366.469      99.537      56.826
  H     -365.629     101.054      57.050
  H     -367.193     100.803      57.788

 6  7  8  9  10  11  12  13  14  15  26  29  33  34 0
 6-311+G(2d,p)
 ****
 36  38  39  40  41 0
 6-311+G(2d,p)
 ****
 1  2  3  4  5  16  17  18  19  20  21  22  23  24  25 0
 3-21G
 ****
 27  28  30  31  32  35  37  42  43  44  45  46  47 0
 3-21G
 ****
 48  49 0
 3-21G
 ****


