%nproc=1
%NoSave
%Mem=1900MB
#P OB98/GEN NMR

erre ene a

0 1
  C      653.776     369.356    -638.199
  O      655.022     369.844    -638.637
  H      653.873     368.285    -637.991
  H      653.026     369.496    -638.990
  H      653.443     369.864    -637.286
  P      655.260     371.432    -638.667
  C      655.526     371.580    -641.233
  O      656.146     371.754    -639.973
  C      656.564     371.297    -642.331
  O      657.215     372.537    -642.694
  C      657.651     370.355    -641.810
  O      658.231     369.571    -642.857
  C      658.708     371.310    -641.275
  O      660.007     370.726    -641.179
  C      658.594     372.461    -642.278
  N      662.072     376.183    -642.401
  C      662.081     374.965    -643.033
  N      663.172     374.689    -643.781
  N      661.120     374.083    -642.934
  C      660.132     374.466    -642.082
  C      660.016     375.636    -641.381
  C      661.075     376.618    -641.530
  O      661.129     377.714    -640.974
  N      658.884     375.658    -640.605
  C      658.308     374.500    -640.847
  N      659.019     373.737    -641.748
  O      656.302     371.683    -637.469
  O      654.034     372.280    -638.512
  H      660.603     371.403    -640.843
  H      656.227     372.600    -637.144
  H      662.826     376.835    -642.527
  H      657.380     374.156    -640.408
  H      659.213     372.248    -643.164
  H      658.410     371.601    -640.259
  H      664.018     375.256    -643.753
  H      657.277     369.692    -641.027
  H      663.336     373.702    -644.019
  H      656.073     370.925    -643.234
  H      654.977     372.500    -641.455
  H      654.795     370.766    -641.185
  P      657.660     368.080    -643.069
  C      659.969     366.915    -642.658
  O      658.879     367.165    -643.527
  O      656.747     368.219    -644.379
  O      656.885     367.556    -641.903
  H      655.801     368.203    -644.129
  H      660.679     366.283    -643.149
  H      659.615     366.432    -641.771
  H      660.437     367.841    -642.397

 6  7  8  9  10  11  12  13  14  15  26  29  33  34 0
 6-311+G(2d,p)
 ****
 36  38  39  40  41 0
 6-311+G(2d,p)
 ****
 1  2  3  4  5  16  17  18  19  20  21  22  23  24  25 0
 3-21G
 ****
 27  28  30  31  32  35  37  42  43  44  45  46  47 0
 3-21G
 ****
 48  49 0
 3-21G
 ****


