%nproc=1
%NoSave
%Mem=1900MB
#P OB98/GEN NMR

erre ene a

0 1
  C      134.303      38.260     374.659
  O      133.032      38.842     374.878
  H      134.228      37.183     374.831
  H      135.040      38.675     375.353
  H      134.629      38.427     373.629
  P      132.883      40.426     374.691
  C      131.927      40.615     377.081
  O      132.925      41.049     376.168
  C      132.543      40.370     378.454
  O      133.780      39.641     378.329
  C      132.871      41.652     379.222
  O      131.709      42.169     379.846
  C      133.898      41.123     380.212
  O      133.229      40.406     381.268
  C      134.700      40.147     379.334
  N      139.731      40.775     379.395
  C      138.904      40.147     380.306
  N      139.501      39.656     381.413
  N      137.609      40.035     380.155
  C      137.148      40.634     379.037
  C      137.865      41.301     378.067
  C      139.301      41.373     378.215
  O      140.074      41.903     377.422
  N      137.040      41.836     377.111
  C      135.831      41.462     377.480
  N      135.840      40.743     378.652
  O      131.717      40.890     373.872
  O      134.281      40.879     374.058
  H      132.770      39.655     380.849
  H      134.241      40.888     373.085
  H      140.720      40.847     379.575
  H      134.921      41.683     376.937
  H      135.076      39.290     379.901
  H      134.493      41.909     380.675
  H      140.419      39.965     381.707
  H      133.358      42.396     378.583
  H      138.907      39.238     382.118
  H      131.852      39.739     379.027
  H      131.495      39.689     376.685
  H      131.133      41.365     377.164
  P      131.153      43.632     379.481
  C      132.692      44.499     381.365
  O      132.274      44.646     380.015
  O      129.772      43.917     379.965
  O      131.316      43.738     377.897
  H      130.535      43.399     377.393
  H      133.438      45.233     381.589
  H      133.101      43.520     381.507
  H      131.853      44.633     382.015

 6  7  8  9  10  11  12  13  14  15  26  29  33  34 0
 6-311+G(2d,p)
 ****
 36  38  39  40  41 0
 6-311+G(2d,p)
 ****
 1  2  3  4  5  16  17  18  19  20  21  22  23  24  25 0
 3-21G
 ****
 27  28  30  31  32  35  37  42  43  44  45  46  47 0
 3-21G
 ****
 48  49 0
 3-21G
 ****


