%nproc=1
%NoSave
%Mem=1900MB
#P OB98/GEN NMR

erre ene a

0 1
  C       24.445     -72.939     -44.379
  O       23.770     -73.058     -43.141
  P       24.538     -72.606     -41.810
  C       24.171     -75.010     -40.898
  O       24.119     -73.613     -40.632
  C       23.255     -75.782     -39.943
  O       23.273     -77.190     -40.284
  C       23.666     -75.664     -38.471
  O       22.490     -75.683     -37.644
  C       24.421     -76.949     -38.213
  O       24.421     -77.287     -36.822
  C       23.639     -77.922     -39.095
  N       23.417     -82.929     -39.766
  C       22.392     -82.006     -39.690
  N       21.133     -82.504     -39.718
  N       22.583     -80.719     -39.613
  C       23.889     -80.368     -39.590
  C       24.998     -81.191     -39.672
  C       24.770     -82.615     -39.746
  O       25.637     -83.483     -39.787
  N       26.160     -80.461     -39.656
  C       25.766     -79.209     -39.517
  N       24.402     -79.106     -39.439
  O       23.799     -71.240     -41.415
  O       26.004     -72.392     -41.980
  H       25.019     -78.057     -36.721
  H       24.371     -70.479     -41.630
  H       23.223     -83.919     -39.817
  H       26.426     -78.352     -39.450
  H       22.711     -78.250     -38.611
  H       25.462     -76.851     -38.541
  H       20.924     -83.495     -39.713
  H       24.264     -74.774     -38.236
  H       20.368     -81.856     -39.620
  H       22.226     -75.428     -40.090
  H       25.199     -75.360     -40.765
  H       23.876     -75.194     -41.937
  P       22.310     -74.429     -36.650
  C       22.764     -75.863     -34.521
  O       21.856     -75.055     -35.245
  O       20.983     -73.718     -37.197
  O       23.481     -73.509     -36.612
  H       20.986     -72.770     -36.957
  H       22.993     -75.376     -33.568
  H       23.699     -76.032     -35.070
  H       22.294     -76.829     -34.318
  H       23.806     -73.278     -45.168
  H       25.334     -73.534     -44.359
  H       24.705     -71.915     -44.546

 3  4  5  6  7  8  9  10  11  12  23  26  30  31 0
 6-311+G(2d,p)
 ****
 33  35  36  37  38 0
 6-311+G(2d,p)
 ****
 1  2  13  14  15  16  17  18  19  20  21  22  24  25 0
 3-21G
 ****
 27  28  29  32  34  39  40  41  42  43  44  45  46  47  48  49 0
 3-21G
 ****


