%nproc=1
%NoSave
%Mem=1900MB
#P OB98/GEN NMR

erre ene a

0 1
  C        2.337      65.126     -76.406
  O        0.956      65.319     -76.658
  P        0.380      65.274     -78.148
  C       -2.028      65.204     -79.190
  O       -1.190      65.004     -78.074
  C       -3.474      65.367     -78.703
  O       -3.995      64.098     -78.258
  C       -3.566      66.350     -77.538
  O       -3.881      67.652     -78.006
  C       -4.652      65.739     -76.674
  O       -5.954      66.084     -77.182
  C       -4.387      64.226     -76.864
  N       -3.342      63.594     -76.036
  C       -3.650      63.168     -74.748
  O       -4.767      63.257     -74.248
  N       -2.604      62.648     -74.028
  C       -1.328      62.479     -74.484
  O       -0.362      62.245     -73.768
  C       -1.138      62.691     -75.921
  C       -2.128      63.251     -76.615
  O        0.966      63.900     -78.720
  O        0.739      66.439     -79.011
  H       -6.608      65.604     -76.644
  H        1.759      64.064     -79.263
  H       -2.787      62.467     -73.046
  H       -0.181      62.435     -76.356
  H       -1.996      63.453     -77.675
  H       -5.306      63.646     -76.723
  H       -4.611      66.124     -75.657
  H       -2.627      66.354     -76.970
  H       -4.093      65.710     -79.541
  H       -1.950      64.354     -79.876
  H       -1.713      66.096     -79.742
  P       -3.496      68.925     -77.118
  C       -2.481      71.226     -77.611
  O       -2.793      69.950     -78.132
  O       -2.732      68.633     -75.869
  O       -4.917      69.596     -76.803
  H       -5.223      69.321     -75.914
  H       -1.854      71.756     -78.332
  H       -1.938      71.134     -76.666
  H       -3.401      71.796     -77.456
  H        2.520      65.193     -75.354
  H        2.901      65.880     -76.915
  H        2.632      64.160     -76.759

 3  4  5  6  7  8  9  10  11  12  13  23  28  29  30  31  32 0
 6-311+G(2d,p)
 ****
 33  34 0
 6-311+G(2d,p)
 ****
 1  2  14  15  16  17  18  19  20  21  22  24  25  26  27 0
 3-21G
 ****
 35  36  37  38  39  40  41  42  43  44  45 0
 3-21G
 ****


