%nproc=1
%NoSave
%Mem=1900MB
#P OB98/GEN NMR

erre ene a

0 1
  C      426.222     308.926     538.313
  O      426.059     308.696     536.931
  P      425.657     309.901     535.958
  C      423.214     309.109     536.048
  O      424.103     310.221     536.181
  C      422.153     309.153     537.155
  O      422.772     309.311     538.450
  C      421.170     310.312     537.024
  O      420.220     310.062     536.010
  C      420.601     310.370     538.438
  O      419.570     309.388     538.609
  C      421.827     310.010     539.287
  N      421.527     313.476     543.026
  C      420.654     312.535     542.596
  N      420.792     311.672     541.571
  C      421.967     311.870     540.947
  C      422.933     312.817     541.251
  C      422.696     313.636     542.361
  N      423.597     314.549     542.847
  N      423.993     312.725     540.357
  C      423.649     311.756     539.520
  N      422.472     311.167     539.882
  O      426.072     309.738     534.536
  O      426.376     311.172     536.613
  H      418.763     309.736     538.174
  H      427.017     311.553     535.972
  H      419.726     312.460     543.168
  H      424.235     311.436     538.668
  H      421.571     309.327     540.112
  H      420.168     311.350     538.680
  H      421.717     311.246     536.818
  H      421.613     308.186     537.144
  H      423.795     308.186     536.126
  H      423.379     314.984     543.735
  H      424.571     314.474     542.558
  H      422.735     309.140     535.064
  P      419.990     311.133     534.844
  C      417.838     311.939     535.967
  O      419.105     312.310     535.456
  O      419.505     310.576     533.541
  O      421.433     311.817     534.679
  H      421.571     312.071     533.741
  H      417.134     311.801     535.141
  H      417.466     312.754     536.609
  H      417.903     311.027     536.553
  H      426.489     308.010     538.798
  H      425.305     309.293     538.724
  H      426.996     309.649     538.465

 3  4  5  6  7  8  9  10  11  12  22  25  29  30  31  32 0
 6-311+G(2d,p)
 ****
 33  36  37 0
 6-311+G(2d,p)
 ****
 1  2  13  14  15  16  17  18  19  20  21  23  24  26 0
 3-21G
 ****
 27  28  34  35  38  39  40  41  42  43  44  45  46  47  48 0
 3-21G
 ****


