%nproc=1
%NoSave
%Mem=1900MB
#P OB98/GEN NMR

erre ene a

0 1
  C      203.495     117.037    -327.219
  O      203.334     116.794    -328.622
  P      203.359     118.090    -329.566
  C      205.662     119.141    -328.999
  O      204.893     118.396    -329.933
  C      207.132     119.215    -329.435
  O      207.811     117.947    -329.189
  C      207.320     119.546    -330.930
  O      208.509     120.348    -331.026
  C      207.549     118.166    -331.529
  O      208.115     118.213    -332.831
  C      208.420     117.549    -330.440
  N      211.460     113.693    -331.851
  C      211.620     115.034    -331.894
  N      210.759     115.998    -331.499
  C      209.633     115.455    -331.015
  C      209.316     114.104    -330.902
  C      210.298     113.195    -331.353
  N      210.134     111.828    -331.332
  N      208.044     113.938    -330.375
  C      207.580     115.169    -330.238
  N      208.529     116.109    -330.529
  O      202.954     119.286    -328.574
  O      202.438     117.994    -330.739
  H      208.251     117.300    -333.165
  H      202.009     119.506    -328.676
  H      212.572     115.379    -332.302
  H      206.575     115.432    -329.934
  H      209.443     117.951    -330.447
  H      206.592     117.640    -331.605
  H      206.480     120.087    -331.370
  H      207.637     119.978    -328.821
  H      205.605     118.682    -328.011
  H      210.892     111.259    -331.679
  H      209.275     111.423    -330.981
  H      205.226     120.143    -328.897
  P      208.459     121.693    -331.899
  C      207.041     123.518    -330.779
  O      208.307     122.875    -330.822
  O      206.970     121.611    -332.494
  O      209.525     121.843    -332.939
  H      206.320     121.435    -331.786
  H      207.047     124.238    -329.955
  H      206.248     122.783    -330.611
  H      206.866     124.054    -331.715
  H      203.462     116.107    -326.690
  H      202.706     117.672    -326.874
  H      204.437     117.513    -327.045

 3  4  5  6  7  8  9  10  11  12  22  25  29  30  31  32 0
 6-311+G(2d,p)
 ****
 33  36  37 0
 6-311+G(2d,p)
 ****
 1  2  13  14  15  16  17  18  19  20  21  23  24  26 0
 3-21G
 ****
 27  28  34  35  38  39  40  41  42  43  44  45  46  47  48 0
 3-21G
 ****


