%nproc=1
%NoSave
%Mem=1900MB
#P OB98/GEN NMR

erre ene a

0 1
  C     -220.285     -36.772     801.056
  O     -220.390     -36.654     802.492
  P     -221.543     -37.372     803.332
  C     -221.554     -38.330     805.741
  O     -221.233     -37.210     804.905
  C     -221.241     -38.048     807.213
  O     -219.806     -37.947     807.429
  C     -221.808     -36.727     807.738
  O     -223.207     -36.849     807.991
  C     -220.949     -36.525     808.988
  O     -221.470     -37.294     810.103
  C     -219.589     -37.076     808.527
  N     -218.646     -35.998     808.192
  C     -217.694     -35.663     809.154
  O     -217.716     -36.234     810.267
  N     -216.771     -34.691     808.870
  C     -216.845     -34.053     807.737
  N     -215.899     -33.099     807.485
  C     -217.898     -34.308     806.724
  C     -218.741     -35.276     807.014
  O     -221.824     -38.784     802.919
  O     -222.845     -36.446     803.124
  H     -222.298     -36.851     810.392
  H     -223.636     -37.008     803.179
  H     -217.930     -33.732     805.812
  H     -219.542     -35.540     806.326
  H     -219.133     -37.688     809.322
  H     -220.920     -35.477     809.315
  H     -221.612     -35.915     807.025
  H     -221.611     -38.894     807.814
  H     -215.189     -32.952     808.210
  H     -220.947     -39.193     805.398
  H     -215.864     -32.539     806.645
  H     -222.615     -38.565     805.611
  P     -224.234     -35.960     807.127
  C     -226.708     -35.262     807.309
  O     -225.663     -36.036     807.854
  O     -224.259     -36.238     805.665
  O     -223.783     -34.452     807.425
  H     -223.963     -33.902     806.632
  H     -227.668     -35.678     807.592
  H     -226.639     -35.228     806.199
  H     -226.630     -34.218     807.676
  H     -219.442     -36.210     800.713
  H     -221.176     -36.392     800.601
  H     -220.160     -37.801     800.791

 3  4  5  6  7  8  9  10  11  12  13  23  27  28  29  30  32 0
 6-311+G(2d,p)
 ****
 34  35 0
 6-311+G(2d,p)
 ****
 1  2  14  15  16  17  18  19  20  21  22  24  25  26 0
 3-21G
 ****
 31  33  36  37  38  39  40  41  42  43  44  45  46 0
 3-21G
 ****


