%nproc=1
%NoSave
%Mem=1900MB
#P OB98/GEN NMR

erre ene a

0 1
  C       39.142      37.557     -44.569
  O       40.123      36.547     -44.710
  H       38.160      37.084     -44.483
  H       39.132      38.216     -45.443
  H       39.330      38.144     -43.667
  P       41.633      36.994     -45.011
  C       42.252      36.763     -47.513
  O       41.624      37.556     -46.511
  C       41.233      35.828     -48.155
  O       40.227      36.589     -48.853
  C       41.844      34.897     -49.194
  O       42.553      33.844     -48.574
  C       40.609      34.487     -49.972
  O       39.880      33.460     -49.289
  C       39.807      35.810     -49.998
  N       39.990      36.558     -51.237
  C       38.878      37.277     -51.690
  O       37.825      37.263     -51.053
  N       38.988      37.975     -52.867
  C       40.105      37.971     -53.522
  N       40.146      38.682     -54.681
  C       41.304      37.237     -53.073
  C       41.176      36.556     -51.937
  O       42.704      35.983     -44.736
  O       41.816      38.317     -44.128
  H       40.042      33.606     -48.337
  H       42.142      38.091     -43.238
  H       42.216      37.267     -53.649
  H       42.010      35.991     -51.534
  H       38.735      35.612     -49.871
  H       40.865      34.110     -50.961
  H       42.497      35.462     -49.868
  H       40.735      35.259     -47.360
  H       39.296      39.162     -54.958
  H       43.040      36.183     -47.020
  H       40.982      38.823     -55.227
  H       42.715      37.399     -48.275
  P       43.542      32.913     -49.427
  C       42.900      30.440     -49.776
  O       42.602      31.796     -50.098
  O       44.727      32.393     -48.685
  O       43.931      33.845     -50.673
  H       44.568      34.554     -50.408
  H       42.211      29.794     -50.279
  H       42.816      30.298     -48.719
  H       43.897      30.210     -50.088

 6  7  8  9  10  11  12  13  14  15  16  26  30  31  32  33  35 0
 6-311+G(2d,p)
 ****
 37  38 0
 6-311+G(2d,p)
 ****
 1  2  3  4  5  17  18  19  20  21  22  23  24  25 0
 3-21G
 ****
 27  28  29  34  36  39  40  41  42  43  44  45  46 0
 3-21G
 ****


