%nproc=1
%NoSave
%Mem=1900MB
#P OB98/GEN NMR

erre ene a

0 1
  C      287.999    -125.828    -140.934
  O      287.396    -126.991    -140.401
  P      285.911    -126.829    -139.795
  C      284.286    -128.686    -138.938
  O      285.214    -128.268    -139.926
  C      283.525    -129.918    -139.438
  O      282.771    -129.593    -140.628
  C      284.416    -131.098    -139.807
  O      284.780    -131.828    -138.644
  C      283.516    -131.872    -140.761
  O      282.570    -132.679    -140.037
  C      282.808    -130.736    -141.520
  N      282.175    -128.354    -145.936
  C      281.247    -128.682    -144.967
  N      279.975    -128.277    -145.181
  N      281.539    -129.347    -143.877
  C      282.845    -129.695    -143.798
  C      283.853    -129.443    -144.704
  C      283.526    -128.663    -145.875
  O      284.325    -128.262    -146.719
  N      285.045    -129.979    -144.290
  C      284.764    -130.530    -143.127
  N      283.449    -130.367    -142.771
  O      285.172    -125.933    -140.887
  O      285.851    -126.239    -138.423
  H      281.958    -132.098    -139.546
  H      285.152    -124.997    -140.614
  H      281.892    -127.825    -146.746
  H      285.479    -131.032    -142.494
  H      281.768    -130.992    -141.763
  H      284.081    -132.554    -141.399
  H      279.672    -127.782    -146.008
  H      285.308    -130.748    -140.340
  H      279.284    -128.513    -144.483
  H      282.809    -130.206    -138.661
  H      283.576    -127.877    -138.748
  H      284.823    -128.915    -138.011
  P      285.963    -132.901    -138.790
  C      288.283    -133.272    -137.677
  O      287.091    -132.510    -137.717
  O      286.629    -132.533    -140.198
  O      285.517    -134.323    -138.754
  H      286.923    -133.350    -140.645
  H      289.096    -132.626    -137.338
  H      288.536    -133.679    -138.660
  H      288.159    -134.092    -136.967
  H      288.975    -126.068    -141.301
  H      288.079    -125.085    -140.168
  H      287.399    -125.451    -141.736

 3  4  5  6  7  8  9  10  11  12  23  26  30  31 0
 6-311+G(2d,p)
 ****
 33  35  36  37  38 0
 6-311+G(2d,p)
 ****
 1  2  13  14  15  16  17  18  19  20  21  22  24  25 0
 3-21G
 ****
 27  28  29  32  34  39  40  41  42  43  44  45  46  47  48  49 0
 3-21G
 ****


