%nproc=1
%NoSave
%Mem=1900MB
#P OB98/GEN NMR

erre ene a

0 1
  C      -38.398     -35.800     249.285
  O      -37.278     -36.609     249.563
  H      -38.063     -34.762     249.202
  H      -39.125     -35.860     250.098
  H      -38.863     -36.095     248.342
  P      -37.483     -38.186     249.782
  C      -36.197     -40.276     249.029
  O      -36.136     -38.869     249.221
  C      -34.991     -40.775     248.231
  O      -35.148     -40.409     246.833
  C      -33.651     -40.198     248.712
  O      -32.689     -41.248     248.833
  C      -33.243     -39.260     247.588
  O      -31.837     -39.036     247.530
  C      -33.855     -39.974     246.379
  N      -33.938     -39.106     245.212
  C      -33.964     -39.743     243.968
  O      -33.923     -40.973     243.901
  N      -33.979     -38.977     242.833
  C      -33.923     -37.686     242.928
  N      -33.911     -36.986     241.763
  C      -33.867     -36.971     244.220
  C      -33.881     -37.735     245.311
  O      -38.750     -38.734     249.218
  O      -37.353     -38.402     251.362
  H      -31.650     -38.419     246.789
  H      -37.804     -39.243     251.608
  H      -33.817     -35.893     244.245
  H      -33.841     -37.301     246.304
  H      -33.270     -40.865     246.111
  H      -33.733     -38.288     247.733
  H      -33.726     -39.674     249.664
  H      -34.985     -41.872     248.262
  H      -33.945     -37.516     240.899
  H      -37.129     -40.518     248.504
  H      -33.846     -35.981     241.711
  H      -36.200     -40.760     250.010
  P      -32.296     -41.682     250.328
  C      -31.228     -43.842     251.291
  O      -31.251     -42.895     250.232
  O      -33.636     -42.365     250.876
  O      -31.871     -40.538     251.186
  H      -34.041     -41.797     251.557
  H      -30.486     -44.586     251.088
  H      -32.188     -44.308     251.374
  H      -30.993     -43.345     252.209

 6  7  8  9  10  11  12  13  14  15  16  26  30  31  32  33  35 0
 6-311+G(2d,p)
 ****
 37  38 0
 6-311+G(2d,p)
 ****
 1  2  3  4  5  17  18  19  20  21  22  23  24  25 0
 3-21G
 ****
 27  28  29  34  36  39  40  41  42  43  44  45  46 0
 3-21G
 ****


