%nproc=1
%NoSave
%Mem=1900MB
#P OB98/GEN NMR

erre ene a

0 1
  C     -221.830      17.673       6.635
  O     -221.567      17.922       5.272
  H     -222.242      16.662       6.729
  H     -222.569      18.380       7.017
  H     -220.910      17.731       7.226
  P     -220.986      19.354       4.832
  C     -218.553      18.577       5.111
  O     -219.557      19.479       5.566
  C     -217.208      19.285       4.937
  O     -216.694      19.674       6.244
  C     -216.137      18.427       4.249
  O     -215.484      19.192       3.230
  C     -215.149      18.125       5.368
  O     -213.841      17.831       4.888
  C     -215.278      19.398       6.218
  N     -214.720      19.222       7.553
  C     -213.579      19.977       7.848
  O     -213.105      20.751       7.012
  N     -212.975      19.813       9.070
  C     -213.435      18.923       9.896
  N     -212.767      18.785      11.078
  C     -214.618      18.081       9.610
  C     -215.205      18.282       8.434
  O     -221.918      20.499       5.062
  O     -220.578      19.177       3.293
  H     -213.212      17.855       5.645
  H     -220.553      20.066       2.867
  H     -214.954      17.355      10.336
  H     -216.075      17.713       8.136
  H     -214.770      20.241       5.734
  H     -215.502      17.255       5.937
  H     -216.536      17.513       3.809
  H     -217.380      20.222       4.386
  H     -211.958      19.372      11.229
  H     -218.882      18.141       4.160
  H     -213.021      18.111      11.790
  H     -218.444      17.783       5.854
  P     -215.388      18.501       1.778
  C     -217.866      18.241       1.045
  O     -216.709      17.606       1.565
  O     -214.211      17.419       1.962
  O     -215.076      19.464       0.683
  H     -213.424      17.701       1.462
  H     -218.657      17.526       0.959
  H     -217.647      18.647       0.080
  H     -218.167      19.029       1.704

 6  7  8  9  10  11  12  13  14  15  16  26  30  31  32  33  35 0
 6-311+G(2d,p)
 ****
 37  38 0
 6-311+G(2d,p)
 ****
 1  2  3  4  5  17  18  19  20  21  22  23  24  25 0
 3-21G
 ****
 27  28  29  34  36  39  40  41  42  43  44  45  46 0
 3-21G
 ****


