%nproc=1
%NoSave
%Mem=1900MB
#P OB98/GEN NMR

erre ene a

0 1
  C      659.273    -899.070     -55.663
  O      658.889    -899.590     -56.943
  P      659.562    -898.960     -58.244
  C      657.774    -897.250     -59.097
  O      658.961    -897.480     -58.374
  C      657.126    -895.930     -58.675
  O      658.073    -894.840     -58.858
  C      655.893    -895.550     -59.465
  O      654.767    -896.330     -59.087
  C      655.786    -894.080     -59.148
  O      655.179    -893.880     -57.867
  C      657.268    -893.640     -59.076
  N      657.719    -892.910     -60.258
  C      656.919    -891.830     -60.631
  O      655.901    -891.500     -60.044
  N      657.345    -891.160     -61.741
  C      658.441    -891.430     -62.516
  O      658.760    -890.780     -63.473
  C      659.190    -892.620     -62.081
  C      658.827    -893.290     -61.002
  O      658.828    -899.790     -59.403
  O      661.051    -899.080     -58.226
  H      657.900    -900.000     -59.198
  H      655.833    -894.210     -57.186
  H      656.781    -890.350     -62.030
  H      660.051    -892.900     -62.698
  H      659.357    -894.170     -60.673
  H      657.451    -893.010     -58.176
  H      655.189    -893.530     -59.861
  H      656.078    -895.680     -60.523
  H      656.876    -896.020     -57.592
  H      657.066    -898.070     -58.898
  H      657.995    -897.250     -60.168
  P      654.319    -897.490     -60.106
  C      652.374    -896.300     -61.377
  O      653.702    -896.770     -61.412
  O      653.037    -898.100     -59.342
  O      655.382    -898.490     -60.400
  H      652.450    -897.400     -59.003
  H      652.258    -895.530     -62.161
  H      652.123    -895.850     -60.428
  H      651.690    -897.140     -61.582
  H      658.741    -899.589     -54.893
  H      659.040    -898.027     -55.617
  H      660.325    -899.207     -55.524

 3  4  5  6  7  8  9  10  11  12  13  24  28  29  30  31  32 0
 6-311+G(2d,p)
 ****
 33  34 0
 6-311+G(2d,p)
 ****
 1  2  14  15  16  17  18  19  20  21  22  23  25  26  27 0
 3-21G
 ****
 35  36  37  38  39  40  41  42  43  44  45 0
 3-21G
 ****


