%nproc=1
%NoSave
%Mem=1900MB
#P OB98/GEN NMR

erre ene a

0 1
  C      172.043      27.979     100.038
  O      172.783      28.894     100.828
  P      172.566      30.461     100.548
  C      170.433      30.588     102.025
  O      170.996      30.740     100.727
  C      169.617      31.819     102.425
  O      168.853      31.509     103.615
  C      170.462      33.061     102.713
  O      169.741      34.199     102.238
  C      170.513      33.109     104.229
  O      170.756      34.431     104.707
  C      169.137      32.530     104.593
  N      169.107      31.993     105.950
  C      169.292      32.905     106.994
  O      169.548      34.082     106.745
  N      169.234      32.450     108.287
  C      169.112      31.179     108.516
  N      169.057      30.779     109.814
  C      169.038      30.171     107.441
  C      169.019      30.645     106.197
  O      172.783      30.574      98.968
  O      173.479      31.361     101.311
  H      170.790      34.397     105.688
  H      173.170      31.438      98.731
  H      168.974      29.121     107.686
  H      168.943      29.981     105.347
  H      168.359      33.299     104.506
  H      171.314      32.456     104.595
  H      171.448      33.024     102.243
  H      168.898      32.027     101.623
  H      169.126      31.488     110.533
  H      171.242      30.465     102.751
  H      168.964      29.810     110.088
  H      169.813      29.687     102.049
  P      170.535      35.589     102.130
  C      170.160      35.797      99.599
  O      171.109      35.624     100.634
  O      171.861      35.265     102.974
  O      169.867      36.826     102.629
  H      172.412      36.065     103.040
  H      170.693      35.939      98.655
  H      169.541      36.676      99.790
  H      169.533      34.904      99.517
  H      172.285      26.979     100.330
  H      172.289      28.118      99.006
  H      170.996      28.149     100.181

 3  4  5  6  7  8  9  10  11  12  13  21  23  27  28  29  30  32 0
 6-311+G(2d,p)
 ****
 34  35 0
 6-311+G(2d,p)
 ****
 1  2  14  15  16  17  18  19  20  22  24  25  26 0
 3-21G
 ****
 31  33  36  37  38  39  40  41  42  43  44  45  46 0
 3-21G
 ****


