%nproc=1
%NoSave
%Mem=1900MB
#P OB98/GEN NMR

erre ene a

0 1
  C       49.888    -263.155    -307.615
  O       50.021    -261.929    -308.354
  P       50.979    -261.918    -309.638
  C       49.952    -259.985    -311.041
  O       51.028    -260.430    -310.231
  C       49.586    -258.533    -310.704
  O       49.057    -258.417    -309.365
  C       50.770    -257.581    -310.757
  O       51.045    -257.155    -312.088
  C       50.241    -256.411    -309.930
  O       49.370    -255.599    -310.742
  C       49.431    -257.126    -308.839
  N       49.812    -255.837    -303.889
  C       48.965    -255.430    -304.858
  N       48.945    -255.803    -306.155
  C       49.904    -256.710    -306.407
  C       50.834    -257.224    -305.518
  C       50.767    -256.750    -304.193
  N       51.623    -257.169    -303.203
  N       51.665    -258.130    -306.148
  C       51.238    -258.164    -307.392
  N       50.187    -257.326    -307.601
  O       50.122    -262.720    -310.731
  O       52.310    -262.564    -309.406
  H       49.193    -254.781    -310.227
  H       50.722    -263.238    -311.308
  H       48.216    -254.706    -304.566
  H       51.663    -258.798    -308.169
  H       48.517    -256.586    -308.582
  H       51.038    -255.756    -309.571
  H       51.650    -258.019    -310.261
  H       48.812    -258.201    -311.416
  H       49.076    -260.626    -310.901
  H       51.496    -256.807    -302.273
  H       52.320    -257.865    -303.433
  H       50.236    -260.080    -312.100
  P       52.457    -257.575    -312.710
  C       51.661    -257.091    -315.134
  O       52.584    -256.790    -314.095
  O       52.233    -259.097    -313.140
  O       53.606    -257.430    -311.766
  H       53.071    -259.596    -313.078
  H       51.678    -256.279    -315.867
  H       50.646    -257.204    -314.747
  H       51.974    -258.027    -315.624
  H       49.220    -263.005    -306.792
  H       50.847    -263.455    -307.246
  H       49.498    -263.918    -308.256

 3  4  5  6  7  8  9  10  11  12  22  25  29  30  31  32 0
 6-311+G(2d,p)
 ****
 33  36  37 0
 6-311+G(2d,p)
 ****
 1  2  13  14  15  16  17  18  19  20  21  23  24  26 0
 3-21G
 ****
 27  28  34  35  38  39  40  41  42  43  44  45  46  47  48 0
 3-21G
 ****


