%nproc=1
%NoSave
%Mem=1900MB
#P OB98/GEN NMR

erre ene a

0 1
  C     -899.450     -12.280    1493.168
  O     -898.110     -12.720    1493.371
  P     -897.720     -14.204    1493.834
  C     -895.680     -14.531    1492.252
  O     -897.000     -14.951    1492.583
  C     -895.590     -14.083    1490.798
  O     -896.410     -12.900    1490.601
  C     -894.210     -13.664    1490.329
  O     -893.340     -14.774    1490.132
  C     -894.540     -12.896    1489.051
  O     -894.680     -13.798    1487.924
  C     -895.900     -12.256    1489.394
  N     -895.820     -10.813    1489.562
  C     -896.350     -10.042    1488.538
  O     -896.790     -10.561    1487.489
  N     -896.380      -8.675    1488.675
  C     -895.820      -8.143    1489.712
  N     -895.880      -6.768    1489.831
  C     -895.110      -8.918    1490.776
  C     -895.170     -10.223    1490.623
  O     -898.870     -14.981    1494.391
  O     -896.550     -14.034    1494.907
  H     -896.540     -14.801    1495.513
  H     -893.770     -14.046    1487.650
  H     -894.630      -8.422    1491.591
  H     -894.690     -10.892    1491.357
  H     -896.640     -12.480    1488.602
  H     -893.750     -12.185    1488.782
  H     -893.750     -12.974    1491.065
  H     -895.980     -14.888    1490.156
  H     -896.370      -6.274    1489.092
  H     -895.010     -15.382    1492.411
  H     -895.490      -6.256    1490.614
  H     -895.370     -13.726    1492.934
  P     -892.200     -15.015    1491.238
  C     -892.440     -17.593    1491.323
  O     -892.540     -16.380    1492.021
  O     -892.490     -13.884    1492.342
  O     -890.810     -14.932    1490.726
  H     -891.650     -13.498    1492.667
  H     -892.230     -18.388    1492.036
  H     -891.640     -17.568    1490.567
  H     -893.390     -17.816    1490.826
  H     -899.446     -11.254    1492.863
  H     -900.000     -12.378    1494.081
  H     -899.910     -12.877    1492.408

 3  4  5  6  7  8  9  10  11  12  13  24  27  28  29  30  32 0
 6-311+G(2d,p)
 ****
 34  35 0
 6-311+G(2d,p)
 ****
 1  2  14  15  16  17  18  19  20  21  22  23  25  26 0
 3-21G
 ****
 31  33  36  37  38  39  40  41  42  43  44  45  46 0
 3-21G
 ****


