%nproc=1
%NoSave
%Mem=1900MB
#P OB98/GEN NMR

erre ene a

0 1
  C       14.391     265.199    -162.933
  O       13.474     265.109    -164.003
  P       11.905     265.338    -163.774
  C       12.283     267.861    -164.140
  O       11.728     266.863    -163.292
  C       11.222     268.917    -164.488
  O       10.770     269.550    -163.249
  C       11.762     270.027    -165.416
  O       10.975     270.248    -166.591
  C       11.889     271.219    -164.481
  O       11.913     272.469    -165.139
  C       10.732     270.969    -163.503
  N       10.852     271.758    -162.280
  C       10.843     273.144    -162.412
  O       10.733     273.736    -163.482
  N       11.034     273.859    -161.261
  C       11.340     273.340    -160.036
  O       11.595     274.045    -159.066
  C       11.377     271.869    -159.966
  C       11.109     271.152    -161.062
  O       11.233     264.335    -162.900
  O       11.326     265.391    -165.268
  H       12.669     272.469    -165.756
  H       11.701     266.097    -165.826
  H       11.030     274.864    -161.341
  H       11.626     271.431    -159.007
  H       11.129     270.064    -161.040
  H        9.768     271.194    -163.964
  H       12.845     271.119    -163.944
  H       12.753     269.761    -165.809
  H       10.372     268.399    -164.945
  H       12.632     267.387    -165.065
  H       13.154     268.320    -163.657
  P       11.527     270.848    -167.968
  C       12.879     268.686    -168.492
  O       12.892     270.092    -168.331
  O       11.597     272.341    -168.030
  O       10.499     270.288    -169.061
  H       10.443     270.913    -169.809
  H       13.867     268.295    -168.230
  H       12.676     268.448    -169.542
  H       12.127     268.215    -167.854
  H       15.381     265.014    -163.295
  H       14.142     264.472    -162.188
  H       14.345     266.179    -162.505

 3  4  5  6  7  8  9  10  11  12  13  23  28  29  30  31  32 0
 6-311+G(2d,p)
 ****
 33  34 0
 6-311+G(2d,p)
 ****
 1  2  14  15  16  17  18  19  20  21  22  24  25  26  27 0
 3-21G
 ****
 35  36  37  38  39  40  41  42  43  44  45 0
 3-21G
 ****


