%nproc=1
%NoSave
%Mem=1900MB
#P OB98/GEN NMR

erre ene a

0 1
  C     -476.671     670.381     177.562
  O     -477.275     669.275     178.204
  H     -477.102     670.480     176.561
  H     -475.594     670.220     177.458
  H     -476.861     671.301     178.115
  P     -476.889     668.965     179.733
  C     -479.388     668.755     180.296
  O     -478.113     668.127     180.356
  C     -480.429     667.790     179.728
  O     -480.269     667.732     178.287
  C     -480.312     666.365     180.272
  O     -481.631     665.836     180.436
  C     -479.598     665.621     179.157
  O     -479.893     664.224     179.160
  C     -480.101     666.344     177.917
  N     -479.184     663.894     173.593
  C     -480.275     663.833     174.437
  N     -481.258     662.969     174.104
  N     -480.387     664.549     175.528
  C     -479.336     665.382     175.737
  C     -478.202     665.528     174.981
  C     -478.081     664.720     173.784
  O     -477.128     664.723     173.005
  N     -477.346     666.448     175.540
  C     -477.970     666.854     176.634
  N     -479.171     666.224     176.805
  O     -476.477     670.151     180.544
  O     -475.720     667.878     179.626
  H     -479.332     663.808     178.477
  H     -474.847     668.298     179.747
  H     -479.149     663.308     172.775
  H     -477.587     667.586     177.330
  H     -481.070     665.964     177.566
  H     -478.512     665.739     179.276
  H     -481.250     662.400     173.275
  H     -479.772     666.309     181.218
  H     -482.083     662.924     174.699
  H     -481.430     668.203     179.917
  H     -479.313     669.636     179.660
  H     -479.688     669.071     181.303
  P     -481.966     664.984     181.753
  C     -483.351     666.806     182.941
  O     -483.359     665.513     182.347
  O     -480.857     664.868     182.746
  O     -482.363     663.545     181.162
  H     -482.126     662.862     181.811
  H     -484.332     667.041     183.296
  H     -483.052     667.531     182.213
  H     -482.663     666.818     183.760

 6  7  8  9  10  11  12  13  14  15  26  29  33  34 0
 6-311+G(2d,p)
 ****
 36  38  39  40  41 0
 6-311+G(2d,p)
 ****
 1  2  3  4  5  16  17  18  19  20  21  22  23  24  25 0
 3-21G
 ****
 27  28  30  31  32  35  37  42  43  44  45  46  47 0
 3-21G
 ****
 48  49 0
 3-21G
 ****


