%nproc=1
%NoSave
%Mem=1900MB
#P OB98/GEN NMR

erre ene a

0 1
  C     -437.776    -532.652     101.285
  O     -437.858    -531.292     101.739
  P     -438.292    -530.138     100.709
  C     -435.970    -528.961     100.490
  O     -437.009    -529.697      99.854
  C     -435.066    -528.307      99.433
  O     -435.877    -527.623      98.440
  C     -434.132    -527.239      99.976
  O     -433.000    -527.798     100.630
  C     -433.755    -526.483      98.706
  O     -432.702    -527.154      97.995
  C     -435.078    -526.543      97.903
  N     -435.810    -525.276      97.917
  C     -435.383    -524.310      97.010
  O     -434.406    -524.458      96.267
  N     -436.092    -523.136      97.010
  C     -437.121    -522.826      97.855
  O     -437.711    -521.743      97.816
  C     -437.464    -523.847      98.843
  C     -436.805    -525.010      98.836
  O     -438.501    -528.879     101.677
  O     -439.534    -530.406      99.917
  H     -431.917    -527.130      98.581
  H     -439.152    -528.278     101.286
  H     -435.819    -522.428      96.343
  H     -438.261    -523.624      99.546
  H     -437.050    -525.779      99.567
  H     -434.877    -526.819      96.864
  H     -433.413    -525.465      98.909
  H     -434.686    -526.555     100.641
  H     -434.504    -529.092      98.916
  H     -435.356    -529.635     101.102
  H     -436.415    -528.197     101.146
  P     -433.161    -528.049     102.227
  C     -431.549    -526.161     103.039
  O     -432.876    -526.625     102.892
  O     -431.840    -528.923     102.511
  O     -434.446    -528.704     102.596
  H     -431.108    -528.671     101.949
  H     -430.911    -526.496     102.217
  H     -431.139    -526.521     103.998
  H     -431.561    -525.058     103.050
  H     -437.475    -533.281     102.096
  H     -437.058    -532.721     100.494
  H     -438.734    -532.966     100.926

 3  4  5  6  7  8  9  10  11  12  13  23  28  29  30  31  32 0
 6-311+G(2d,p)
 ****
 33  34 0
 6-311+G(2d,p)
 ****
 1  2  14  15  16  17  18  19  20  21  22  24  25  26 0
 3-21G
 ****
 27  35  36  37  38  39  40  41  42  43  44  45 0
 3-21G
 ****


