%nproc=1
%NoSave
%Mem=1900MB
#P OB98/GEN NMR

erre ene a

0 1
  C     -513.991    -426.130    -892.430
  O     -515.351    -426.493    -892.530
  H     -513.885    -425.044    -892.390
  H     -513.577    -426.554    -891.510
  H     -513.422    -426.530    -893.280
  P     -516.143    -425.971    -893.830
  C     -516.449    -423.589    -894.800
  O     -516.299    -424.385    -893.650
  C     -517.367    -422.406    -894.500
  O     -516.983    -421.774    -893.240
  C     -517.312    -421.287    -895.540
  O     -518.111    -421.574    -896.670
  C     -517.877    -420.118    -894.740
  O     -519.320    -420.264    -894.650
  C     -517.248    -420.362    -893.360
  N     -515.173    -415.795    -892.280
  C     -516.455    -416.196    -892.420
  N     -516.934    -417.419    -892.690
  C     -515.913    -418.295    -892.880
  C     -514.541    -418.031    -892.760
  C     -514.188    -416.714    -892.440
  N     -512.883    -416.304    -892.320
  N     -513.821    -419.166    -893.030
  C     -514.720    -420.112    -893.250
  N     -516.002    -419.634    -893.180
  O     -517.635    -426.506    -893.590
  O     -515.583    -426.401    -895.140
  H     -519.667    -420.151    -895.560
  H     -518.119    -426.537    -894.440
  H     -517.216    -415.420    -892.250
  H     -514.487    -421.144    -893.470
  H     -517.926    -420.071    -892.540
  H     -517.686    -419.157    -895.170
  H     -516.267    -421.045    -895.820
  H     -518.401    -422.783    -894.400
  H     -516.883    -424.179    -895.600
  H     -512.725    -415.303    -892.290
  H     -512.147    -416.950    -892.580
  H     -515.457    -423.221    -895.130
  P     -517.674    -420.892    -898.060
  C     -517.365    -418.421    -898.840
  O     -517.958    -419.323    -897.880
  O     -518.829    -421.362    -899.080
  O     -516.309    -421.264    -898.550
  H     -518.515    -421.394    -900.000
  H     -517.637    -417.415    -898.599
  H     -517.719    -418.661    -899.821
  H     -516.300    -418.520    -898.811

 6  7  8  9  10  11  12  13  14  15  25  28  32  33  34  35 0
 6-311+G(2d,p)
 ****
 36  39  40 0
 6-311+G(2d,p)
 ****
 1  2  3  4  5  16  17  18  19  20  21  22  23  24 0
 3-21G
 ****
 26  27  29  30  31  37  38  41  42  43  44  45  46  47 0
 3-21G
 ****
 48 0
 3-21G
 ****


