%nproc=1
%NoSave
%Mem=1900MB
#P OB98/GEN NMR

erre ene a

0 1
  C     -180.421     388.624    -216.566
  O     -181.095     387.691    -217.382
  H     -179.447     388.840    -217.013
  H     -180.265     388.199    -215.569
  H     -180.985     389.558    -216.484
  P     -182.657     387.441    -217.144
  C     -184.776     388.734    -217.853
  O     -183.450     388.360    -218.194
  C     -185.178     390.031    -218.565
  O     -184.162     391.039    -218.312
  C     -185.241     389.837    -220.088
  O     -186.164     390.735    -220.699
  C     -183.833     390.200    -220.531
  O     -183.763     390.598    -221.900
  C     -183.479     391.316    -219.550
  N     -179.338     394.269    -219.910
  C     -180.592     394.447    -220.467
  N     -180.767     395.565    -221.214
  N     -181.577     393.601    -220.321
  C     -181.242     392.497    -219.612
  C     -180.027     392.194    -219.031
  C     -178.959     393.156    -219.169
  O     -177.822     393.035    -218.719
  N     -180.068     390.974    -218.398
  C     -181.294     390.540    -218.596
  N     -182.055     391.437    -219.307
  O     -182.948     388.176    -215.750
  O     -183.085     386.002    -217.106
  H     -184.462     390.121    -222.379
  H     -183.751     387.809    -215.333
  H     -178.624     394.962    -220.028
  H     -181.687     389.597    -218.239
  H     -183.837     392.284    -219.918
  H     -183.202     389.318    -220.418
  H     -179.983     396.133    -221.506
  H     -185.493     388.821    -220.368
  H     -181.549     395.553    -221.869
  H     -186.117     390.415    -218.153
  H     -184.803     388.864    -216.769
  H     -185.474     387.925    -218.095
  P     -187.477     390.124    -221.389
  C     -189.978     389.640    -220.654
  O     -188.670     390.064    -220.324
  O     -187.107     388.594    -221.635
  O     -187.885     390.815    -222.656
  H     -187.080     388.397    -222.589
  H     -190.598     389.685    -219.783
  H     -189.946     388.634    -221.018
  H     -190.380     390.280    -221.411

 6  7  8  9  10  11  12  13  14  15  26  29  33  34 0
 6-311+G(2d,p)
 ****
 36  38  39  40  41 0
 6-311+G(2d,p)
 ****
 1  2  3  4  5  16  17  18  19  20  21  22  23  24  25 0
 3-21G
 ****
 27  28  30  31  32  35  37  42  43  44  45  46  47 0
 3-21G
 ****
 48  49 0
 3-21G
 ****


