%nproc=1
%NoSave
%Mem=1900MB
#P OB98/GEN NMR

erre ene a

0 1
  C      422.839    -302.133     108.058
  O      423.413    -301.355     109.090
  H      423.166    -303.170     108.182
  H      423.174    -301.773     107.083
  H      421.746    -302.101     108.109
  P      422.975    -299.821     109.238
  C      422.404    -300.052     111.744
  O      423.217    -299.408     110.768
  C      422.860    -299.643     113.147
  O      424.165    -300.199     113.426
  C      423.003    -298.136     113.331
  O      421.738    -297.519     113.482
  C      423.890    -298.085     114.566
  O      423.122    -298.276     115.765
  C      424.844    -299.277     114.320
  N      426.135    -298.873     113.781
  C      426.948    -298.110     114.624
  O      426.606    -297.754     115.751
  N      428.163    -297.746     114.107
  C      428.587    -297.967     112.826
  O      429.650    -297.539     112.386
  C      427.684    -298.746     111.981
  C      426.517    -299.164     112.485
  O      421.629    -299.478     108.698
  O      424.134    -299.024     108.466
  H      422.560    -299.064     115.611
  H      423.799    -298.718     107.605
  H      428.756    -297.182     114.694
  H      427.994    -298.955     110.962
  H      425.836    -299.738     111.875
  H      425.010    -299.825     115.260
  H      424.405    -297.132     114.663
  H      423.547    -297.704     112.486
  H      422.149    -300.062     113.872
  H      422.509    -301.138     111.629
  H      421.359    -299.769     111.577
  P      421.547    -295.979     113.079
  C      419.144    -295.855     112.170
  O      420.003    -295.609     113.282
  O      422.123    -295.595     111.754
  O      422.268    -295.186     114.265
  H      423.003    -294.653     113.899
  H      418.144    -295.571     112.422
  H      419.168    -296.896     111.924
  H      419.476    -295.283     111.329

 6  7  8  9  10  11  12  13  14  15  16  26  31  32  33  34  35 0
 6-311+G(2d,p)
 ****
 36  37 0
 6-311+G(2d,p)
 ****
 1  2  3  4  5  17  18  19  20  21  22  23  24  25 0
 3-21G
 ****
 27  28  29  30  38  39  40  41  42  43  44  45 0
 3-21G
 ****


