%nproc=1
%NoSave
%Mem=1900MB
#P OB98/GEN NMR

erre ene a

0 1
  C      579.877       5.273     309.477
  O      578.610       5.284     310.097
  H      580.643       5.349     310.250
  H      579.982       6.120     308.793
  H      580.025       4.334     308.935
  P      577.302       5.298     309.167
  C      577.240       2.747     308.735
  O      577.426       4.039     308.178
  C      576.505       1.832     307.747
  O      577.424       1.450     306.685
  C      575.987       0.520     308.382
  O      574.811       0.140     307.654
  C      577.130      -0.430     308.092
  O      576.750      -1.766     308.287
  C      577.504       0.004     306.671
  N      578.816      -0.466     306.261
  C      578.906      -1.826     305.937
  O      577.916      -2.553     306.009
  N      580.129      -2.333     305.557
  C      581.170      -1.568     305.580
  N      582.356      -2.135     305.211
  C      581.128      -0.143     305.980
  C      579.928       0.336     306.299
  O      576.999       6.596     308.497
  O      576.117       4.863     310.157
  H      577.445      -2.382     307.957
  H      575.577       5.644     310.386
  H      582.038       0.449     305.992
  H      579.796       1.368     306.606
  H      576.755      -0.355     305.944
  H      577.970      -0.237     308.773
  H      575.752       0.631     309.447
  H      575.696       2.392     307.279
  H      582.340      -3.111     304.953
  H      576.645       2.860     309.648
  H      583.239      -1.645     305.212
  H      578.210       2.301     308.998
  P      573.325       0.436     308.185
  C      572.727       2.384     306.603
  O      572.975       1.978     307.950
  O      573.068      -0.046     309.577
  O      572.359      -0.332     307.154
  H      571.551      -0.621     307.621
  H      572.506       3.431     306.581
  H      571.895       1.836     306.213
  H      573.594       2.190     306.007

 6  7  8  9  10  11  12  13  14  15  16  26  30  31  32  33  35 0
 6-311+G(2d,p)
 ****
 37  38 0
 6-311+G(2d,p)
 ****
 1  2  3  4  5  17  18  19  20  21  22  23  24  25 0
 3-21G
 ****
 27  28  29  34  36  39  40  41  42  43  44  45  46 0
 3-21G
 ****


