%nproc=1
%NoSave
%Mem=1900MB
#P OB98/GEN NMR

erre ene a

0 1
  C     -168.569     -14.819     -43.894
  O     -168.580     -13.553     -44.534
  P     -167.297     -12.607     -44.385
  C     -166.411     -10.891     -42.641
  O     -167.415     -11.835     -42.982
  C     -166.634     -10.367     -41.222
  O     -166.699     -11.496     -40.292
  C     -165.525      -9.428     -40.715
  O     -166.140      -8.453     -39.854
  C     -164.657     -10.359     -39.887
  O     -163.828      -9.673     -38.961
  C     -165.738     -11.236     -39.250
  N     -165.202     -12.482     -38.687
  C     -164.327     -12.377     -37.614
  O     -163.974     -11.301     -37.119
  N     -163.792     -13.550     -37.157
  C     -163.982     -14.784     -37.703
  O     -163.390     -15.785     -37.319
  C     -164.921     -14.842     -38.842
  C     -165.479     -13.707     -39.268
  O     -167.560     -11.461     -45.475
  O     -165.987     -13.296     -44.603
  H     -163.480     -10.338     -38.337
  H     -167.041     -11.636     -46.284
  H     -163.166     -13.490     -36.371
  H     -165.110     -15.807     -39.286
  H     -166.166     -13.709     -40.113
  H     -166.267     -10.675     -38.461
  H     -164.008     -10.941     -40.552
  H     -164.972      -8.931     -41.518
  H     -167.611      -9.856     -41.182
  H     -166.453     -10.057     -43.341
  H     -165.419     -11.361     -42.721
  P     -165.822      -6.901     -40.130
  C     -163.748      -5.367     -39.705
  O     -164.278      -6.675     -39.761
  O     -166.614      -6.215     -38.915
  O     -166.264      -6.427     -41.480
  H     -166.492      -6.685     -38.069
  H     -164.484      -4.648     -39.341
  H     -163.417      -5.070     -40.700
  H     -162.881      -5.364     -39.032
  H     -169.492     -15.325     -44.088
  H     -168.452     -14.684     -42.839
  H     -167.756     -15.403     -44.272

 3  4  5  6  7  8  9  10  11  12  13  23  28  29  30  31  32 0
 6-311+G(2d,p)
 ****
 33  34 0
 6-311+G(2d,p)
 ****
 1  2  14  15  16  17  18  19  20  21  22  24  25  26 0
 3-21G
 ****
 27  35  36  37  38  39  40  41  42  43  44  45 0
 3-21G
 ****


