%nproc=1
%NoSave
%Mem=1900MB
#P OB98/GEN NMR

erre ene a

0 1
  C     -365.133     375.772    -121.877
  O     -366.539     375.550    -122.074
  P     -367.195     375.256    -123.508
  C     -367.168     372.701    -123.903
  O     -367.914     373.822    -123.448
  C     -367.778     372.139    -125.198
  O     -366.947     371.066    -125.715
  C     -369.151     371.508    -125.050
  O     -370.172     372.465    -124.873
  C     -369.255     370.710    -126.349
  O     -369.712     371.536    -127.431
  C     -367.791     370.284    -126.591
  N     -367.570     368.861    -126.397
  C     -367.616     368.058    -127.538
  O     -367.909     368.542    -128.628
  N     -367.338     366.714    -127.404
  C     -367.139     366.211    -126.230
  N     -366.858     364.877    -126.165
  C     -367.228     366.999    -124.989
  C     -367.439     368.304    -125.140
  O     -366.244     375.402    -124.652
  O     -368.411     376.291    -123.635
  H     -368.587     376.474    -124.578
  H     -370.618     371.824    -127.197
  H     -367.095     366.524    -124.019
  H     -367.499     368.961    -124.281
  H     -367.479     370.555    -127.605
  H     -369.951     369.868    -126.269
  H     -369.139     370.815    -124.198
  H     -367.805     372.948    -125.942
  H     -366.795     364.370    -127.036
  H     -367.202     371.921    -123.135
  H     -366.664     364.394    -125.300
  H     -366.125     372.996    -124.058
  P     -371.129     372.289    -123.601
  C     -369.604     373.129    -121.676
  O     -370.708     373.390    -122.516
  O     -370.646     370.906    -122.955
  O     -372.588     372.252    -123.923
  H     -371.417     370.406    -122.626
  H     -369.159     374.079    -121.372
  H     -368.842     372.522    -122.185
  H     -369.942     372.595    -120.779
  H     -364.941     375.946    -120.839
  H     -364.824     376.625    -122.444
  H     -364.587     374.911    -122.201

 3  4  5  6  7  8  9  10  11  12  13  24  27  28  29  30  32 0
 6-311+G(2d,p)
 ****
 34  35 0
 6-311+G(2d,p)
 ****
 1  2  14  15  16  17  18  19  20  21  22  23  25  26 0
 3-21G
 ****
 31  33  36  37  38  39  40  41  42  43  44  45  46 0
 3-21G
 ****


