%nproc=1
%NoSave
%Mem=1900MB
#P OB98/GEN NMR

erre ene a

0 1
  C     -610.771    -867.847      97.452
  O     -609.850    -866.877      97.013
  H     -610.254    -868.801      97.565
  H     -611.581    -867.973      96.724
  H     -611.201    -867.563      98.422
  P     -610.364    -865.382      96.772
  C     -609.366    -865.086      94.410
  O     -609.307    -864.698      95.785
  C     -608.128    -864.569      93.677
  O     -608.142    -863.129      93.602
  C     -606.803    -864.947      94.347
  O     -606.438    -866.286      94.017
  C     -605.879    -863.911      93.734
  O     -605.543    -864.285      92.379
  C     -606.772    -862.663      93.743
  N     -603.682    -860.225      96.944
  C     -603.381    -861.015      95.835
  N     -602.071    -861.192      95.566
  N     -604.285    -861.560      95.075
  C     -605.551    -861.343      95.502
  C     -605.962    -860.595      96.586
  C     -604.963    -859.954      97.395
  O     -605.179    -859.229      98.356
  N     -607.335    -860.655      96.730
  C     -607.739    -861.394      95.719
  N     -606.683    -861.848      94.949
  O     -610.663    -864.575      97.998
  O     -611.662    -865.562      95.858
  H     -605.138    -863.478      91.979
  H     -612.476    -865.630      96.388
  H     -602.934    -859.836      97.504
  H     -608.769    -861.628      95.497
  H     -606.563    -861.998      92.902
  H     -604.939    -863.809      94.291
  H     -601.357    -861.056      96.275
  H     -606.841    -864.793      95.434
  H     -601.824    -861.806      94.802
  H     -608.166    -864.952      92.654
  H     -610.272    -864.637      93.988
  H     -609.435    -866.161      94.316
  P     -606.458    -867.460      95.118
  C     -604.414    -868.674      94.154
  O     -605.806    -868.709      94.404
  O     -607.799    -867.703      95.738
  O     -605.336    -867.025      96.167
  H     -605.677    -866.434      96.883
  H     -604.116    -869.580      93.669
  H     -603.888    -868.575      95.080
  H     -604.186    -867.840      93.523

 6  7  8  9  10  11  12  13  14  15  26  29  33  34 0
 6-311+G(2d,p)
 ****
 36  38  39  40  41 0
 6-311+G(2d,p)
 ****
 1  2  3  4  5  16  17  18  19  20  21  22  23  24  25 0
 3-21G
 ****
 27  28  30  31  32  35  37  42  43  44  45  46  47 0
 3-21G
 ****
 48  49 0
 3-21G
 ****


