%nproc=1
%NoSave
%Mem=1900MB
#P OB98/GEN NMR

erre ene a

0 1
  C       -1.679    -311.381      82.531
  O       -2.690    -312.348      82.718
  H       -1.129    -311.264      83.470
  H       -2.128    -310.420      82.267
  H       -0.982    -311.695      81.751
  P       -3.486    -312.822      81.405
  C       -6.015    -312.243      81.310
  O       -4.682    -311.770      81.193
  C       -6.503    -312.107      82.751
  O       -6.123    -310.816      83.290
  C       -8.015    -312.212      82.916
  O       -8.451    -313.565      82.957
  C       -8.197    -311.533      84.263
  O       -7.814    -312.436      85.320
  C       -7.197    -310.372      84.167
  N      -10.977    -307.014      84.594
  C      -10.735    -308.177      85.307
  N      -11.635    -308.494      86.261
  N       -9.709    -308.959      85.096
  C       -8.898    -308.524      84.102
  C       -9.031    -307.393      83.329
  C      -10.165    -306.529      83.573
  O      -10.413    -305.480      82.988
  N       -8.003    -307.279      82.427
  C       -7.262    -308.348      82.637
  N       -7.765    -309.140      83.643
  O       -4.244    -314.150      81.891
  O       -2.641    -313.089      80.205
  H       -8.326    -313.254      85.191
  H       -4.271    -314.785      81.149
  H      -11.791    -306.454      84.788
  H       -6.356    -308.592      82.102
  H       -6.747    -310.128      85.137
  H       -9.230    -311.238      84.454
  H      -12.475    -307.961      86.442
  H       -8.546    -311.638      82.142
  H      -11.463    -309.320      86.819
  H       -5.994    -312.873      83.351
  H       -6.051    -313.300      81.012
  H       -6.661    -311.661      80.637
  P      -10.000    -313.859      82.648
  C      -11.193    -314.428      84.887
  O      -10.794    -313.412      83.971
  O      -10.079    -315.457      82.689
  O      -10.501    -313.301      81.359
  H      -10.848    -315.763      82.174
  H      -11.707    -313.982      85.712
  H      -10.328    -314.946      85.244
  H      -11.844    -315.119      84.392

 6  7  8  9  10  11  12  13  14  15  26  29  33  34 0
 6-311+G(2d,p)
 ****
 36  38  39  40  41 0
 6-311+G(2d,p)
 ****
 1  2  3  4  5  16  17  18  19  20  21  22  23  24  25 0
 3-21G
 ****
 27  28  30  31  32  35  37  42  43  44  45  46  47 0
 3-21G
 ****
 48  49 0
 3-21G
 ****


