%nproc=1
%NoSave
%Mem=1900MB
#P OB98/GEN NMR

erre ene a

0 1
  C      162.576     628.872     596.253
  O      163.812     629.563     596.193
  H      162.783     627.803     596.383
  H      162.021     629.005     595.325
  H      161.987     629.223     597.102
  P      163.795     631.143     595.928
  C      162.854     631.517     598.310
  O      162.697     631.759     596.915
  C      162.743     632.821     599.098
  O      161.451     633.430     598.869
  C      162.863     632.656     600.608
  O      164.201     632.440     600.986
  C      162.253     633.969     601.083
  O      163.193     635.043     600.960
  C      161.086     634.145     600.089
  N      159.795     633.672     600.591
  C      158.696     634.482     600.299
  O      158.845     635.533     599.667
  N      157.457     634.096     600.760
  C      157.324     632.978     601.396
  N      156.069     632.636     601.828
  C      158.463     632.071     601.692
  C      159.652     632.482     601.277
  O      163.652     631.566     594.502
  O      165.182     631.654     596.555
  H      163.641     634.901     600.094
  H      165.872     631.692     595.872
  H      158.304     631.136     602.225
  H      160.535     631.880     601.446
  H      160.977     635.204     599.799
  H      161.936     633.925     602.134
  H      162.219     631.832     600.954
  H      163.500     633.524     598.716
  H      155.319     633.282     601.578
  H      163.861     631.079     598.447
  H      155.816     631.728     602.181
  H      162.119     630.798     598.665
  P      164.588     631.716     602.366
  C      165.317     629.526     601.227
  O      164.384     630.131     602.099
  O      163.878     632.237     603.573
  O      166.185     631.852     602.433
  H      166.433     632.771     602.713
  H      165.087     628.486     601.125
  H      166.303     629.636     601.628
  H      165.267     629.998     600.268

 6  7  8  9  10  11  12  13  14  15  16  26  30  31  32  33  35 0
 6-311+G(2d,p)
 ****
 37  38 0
 6-311+G(2d,p)
 ****
 1  2  3  4  5  17  18  19  20  21  22  23  24  25 0
 3-21G
 ****
 27  28  29  34  36  39  40  41  42  43  44  45  46 0
 3-21G
 ****


