%nproc=1
%NoSave
%Mem=1900MB
#P OB98/GEN NMR

erre ene a

0 1
  C       55.576      33.672       9.733
  O       56.004      33.562       8.386
  P       57.456      34.061       7.943
  C       58.705      36.370       7.990
  O       57.490      35.654       8.032
  C       58.410      37.861       8.204
  O       57.862      38.437       7.001
  C       57.406      38.077       9.332
  O       58.074      38.328      10.558
  C       56.595      39.257       8.832
  O       57.289      40.492       9.096
  C       56.551      38.983       7.310
  N       55.534      38.043       6.802
  C       54.306      38.530       6.363
  O       54.012      39.720       6.340
  N       53.398      37.579       5.966
  C       53.618      36.233       5.925
  O       52.738      35.390       5.804
  C       55.007      35.814       6.137
  C       55.880      36.717       6.581
  O       57.469      33.779       6.369
  O       58.601      33.404       8.641
  H       57.551      40.478      10.033
  H       57.934      32.944       6.173
  H       52.458      37.915       5.779
  H       55.259      34.774       5.978
  H       56.906      36.421       6.782
  H       56.439      39.916       6.746
  H       55.641      39.329       9.350
  H       56.740      37.208       9.419
  H       59.352      38.379       8.428
  H       59.200      36.214       7.025
  H       59.386      36.003       8.766
  P       57.429      37.818      11.930
  C       55.127      38.102      13.019
  O       56.034      38.600      12.057
  O       58.318      37.892      13.127
  O       57.005      36.308      11.596
  H       57.691      35.691      11.925
  H       54.309      38.817      13.133
  H       55.624      37.973      13.986
  H       54.718      37.147      12.681
  H       54.582      33.286       9.824
  H       55.587      34.700      10.028
  H       56.235      33.113      10.364

 3  4  5  6  7  8  9  10  11  12  13  23  28  29  30  31  32 0
 6-311+G(2d,p)
 ****
 33  34 0
 6-311+G(2d,p)
 ****
 1  2  14  15  16  17  18  19  20  21  22  24  25  26  27 0
 3-21G
 ****
 35  36  37  38  39  40  41  42  43  44  45 0
 3-21G
 ****


