%nproc=1
%NoSave
%Mem=1900MB
#P OB98/GEN NMR

erre ene a

0 1
  C      -94.052    -141.165    -365.161
  O      -93.256    -141.466    -364.033
  H      -94.173    -140.081    -365.225
  H      -95.036    -141.628    -365.068
  H      -93.559    -141.518    -366.070
  P      -93.001    -143.022    -363.730
  C      -92.716    -142.431    -361.237
  O      -92.120    -143.025    -362.386
  C      -91.714    -141.513    -360.533
  O      -90.819    -142.330    -359.733
  C      -90.852    -140.690    -361.499
  O      -90.606    -139.406    -360.927
  C      -89.549    -141.475    -361.549
  O      -88.447    -140.667    -361.946
  C      -89.473    -142.010    -360.121
  N      -84.853    -143.637    -358.720
  C      -85.492    -142.467    -358.535
  N      -86.738    -142.122    -358.924
  C      -87.354    -143.163    -359.516
  C      -86.831    -144.418    -359.774
  C      -85.508    -144.641    -359.359
  N      -84.836    -145.822    -359.570
  N      -87.761    -145.194    -360.441
  C      -88.825    -144.429    -360.574
  N      -88.617    -143.181    -360.041
  O      -92.436    -143.815    -364.859
  O      -94.436    -143.495    -363.205
  H      -87.703    -141.257    -362.197
  H      -94.802    -142.871    -362.550
  H      -84.920    -141.695    -358.013
  H      -89.758    -144.716    -361.043
  H      -89.071    -141.268    -359.408
  H      -89.639    -142.294    -362.264
  H      -91.301    -140.578    -362.485
  H      -92.260    -140.863    -359.835
  H      -93.050    -143.211    -360.542
  H      -83.886    -145.898    -359.240
  H      -85.304    -146.584    -360.038
  H      -93.589    -141.861    -361.568
  P      -91.329    -138.122    -361.546
  C      -89.202    -137.238    -362.701
  O      -90.244    -136.966    -361.766
  O      -92.580    -137.684    -360.853
  O      -91.648    -138.587    -363.051
  H      -92.543    -138.289    -363.303
  H      -88.546    -136.395    -362.759
  H      -89.628    -137.425    -363.665
  H      -88.651    -138.098    -362.381

 6  7  8  9  10  11  12  13  14  15  25  28  32  33  34  35 0
 6-311+G(2d,p)
 ****
 36  39  40 0
 6-311+G(2d,p)
 ****
 1  2  3  4  5  16  17  18  19  20  21  22  23  24 0
 3-21G
 ****
 26  27  29  30  31  37  38  41  42  43  44  45  46  47 0
 3-21G
 ****
 48 0
 3-21G
 ****


