%nproc=1
%NoSave
%Mem=1900MB
#P OB98/GEN NMR

erre ene a

0 1
  C     -414.627     -93.789     203.647
  O     -415.750     -93.012     203.999
  H     -414.973     -94.687     203.127
  H     -414.092     -94.090     204.553
  H     -413.951     -93.241     202.986
  P     -415.539     -91.466     204.346
  C     -415.674     -91.615     206.922
  O     -414.842     -91.369     205.792
  C     -414.850     -91.817     208.195
  O     -414.022     -92.992     208.055
  C     -413.909     -90.641     208.478
  O     -414.495     -89.587     209.217
  C     -412.796     -91.317     209.275
  O     -413.096     -91.337     210.680
  C     -412.771     -92.744     208.714
  N     -407.921     -94.244     208.091
  C     -408.608     -93.994     209.265
  N     -407.896     -94.132     210.407
  N     -409.865     -93.634     209.304
  C     -410.412     -93.445     208.081
  C     -409.823     -93.639     206.850
  C     -408.457     -94.111     206.819
  O     -407.810     -94.360     205.808
  N     -410.678     -93.307     205.825
  C     -411.744     -92.829     206.439
  N     -411.661     -92.968     207.806
  O     -417.023     -90.942     204.644
  O     -414.897     -90.644     203.271
  H     -413.193     -90.409     210.983
  H     -417.100     -90.005     204.386
  H     -406.967     -94.547     208.129
  H     -412.616     -92.419     205.945
  H     -412.680     -93.487     209.514
  H     -411.853     -90.776     209.163
  H     -406.909     -94.321     210.433
  H     -413.478     -90.258     207.550
  H     -408.306     -93.776     211.275
  H     -415.528     -92.001     209.037
  H     -416.243     -92.517     206.697
  H     -416.388     -90.798     207.052
  P     -414.366     -88.070     208.731
  C     -412.011     -87.573     209.776
  O     -412.819     -87.704     208.627
  O     -414.860     -87.235     210.001
  O     -415.138     -87.727     207.498
  H     -415.791     -86.964     209.894
  H     -411.012     -87.325     209.483
  H     -412.006     -88.497     210.316
  H     -412.402     -86.797     210.401

 6  7  8  9  10  11  12  13  14  15  26  29  33  34 0
 6-311+G(2d,p)
 ****
 36  38  39  40  41 0
 6-311+G(2d,p)
 ****
 1  2  3  4  5  16  17  18  19  20  21  22  23  24  25 0
 3-21G
 ****
 27  28  30  31  32  35  37  42  43  44  45  46  47 0
 3-21G
 ****
 48  49 0
 3-21G
 ****


