%nproc=1
%NoSave
%Mem=1900MB
#P OB98/GEN NMR

erre ene a

0 1
  C      -91.389    1096.969    -655.322
  O      -92.224    1097.545    -654.345
  H      -90.755    1097.745    -655.759
  H      -92.002    1096.527    -656.119
  H      -90.749    1096.191    -654.883
  P      -92.946    1096.555    -653.313
  C      -91.117    1096.856    -651.490
  O      -91.794    1095.960    -652.367
  C      -89.806    1096.243    -651.001
  O      -89.097    1095.695    -652.157
  C      -88.856    1097.235    -650.298
  O      -88.188    1096.562    -649.235
  C      -87.842    1097.549    -651.390
  O      -86.602    1098.019    -650.840
  C      -87.745    1096.198    -652.085
  N      -83.376    1097.089    -654.409
  C      -83.651    1096.831    -653.076
  N      -82.614    1096.883    -652.219
  N      -84.850    1096.563    -652.633
  C      -85.789    1096.533    -653.602
  C      -85.661    1096.774    -654.944
  C      -84.329    1097.088    -655.434
  O      -84.024    1097.338    -656.589
  N      -86.866    1096.693    -655.586
  C      -87.748    1096.429    -654.626
  N      -87.137    1096.320    -653.389
  O      -93.354    1095.311    -654.242
  O      -94.133    1097.122    -652.595
  H      -86.752    1098.918    -650.488
  H      -94.276    1095.419    -654.549
  H      -82.437    1097.319    -654.707
  H      -88.818    1096.333    -654.747
  H      -87.138    1095.472    -651.523
  H      -88.240    1098.317    -652.063
  H      -81.658    1097.053    -652.488
  H      -89.370    1098.132    -649.912
  H      -82.794    1096.651    -651.239
  H      -90.034    1095.395    -650.346
  H      -91.762    1097.065    -650.623
  H      -90.929    1097.799    -652.012
  P      -88.742    1096.779    -647.733
  C      -89.957    1094.466    -647.628
  O      -90.061    1095.882    -647.554
  O      -89.297    1098.275    -647.776
  O      -87.696    1096.603    -646.677
  H      -89.173    1098.693    -646.909
  H      -90.924    1094.030    -647.488
  H      -89.294    1094.117    -646.864
  H      -89.575    1094.186    -648.587

 6  7  8  9  10  11  12  13  14  15  26  29  33  34 0
 6-311+G(2d,p)
 ****
 36  38  39  40  41 0
 6-311+G(2d,p)
 ****
 1  2  3  4  5  16  17  18  19  20  21  22  23  24  25 0
 3-21G
 ****
 27  28  30  31  32  35  37  42  43  44  45  46  47 0
 3-21G
 ****
 48  49 0
 3-21G
 ****


