%nproc=1
%NoSave
%Mem=1900MB
#P OB98/GEN NMR

erre ene a

0 1
  C     -649.207     659.224    -139.214
  O     -648.915     658.815    -137.897
  H     -650.067     659.903    -139.220
  H     -648.343     659.767    -139.616
  H     -649.408     658.358    -139.847
  P     -650.078     658.040    -137.106
  C     -651.314     660.195    -136.341
  O     -651.375     658.994    -137.110
  C     -652.553     661.029    -136.583
  O     -653.703     660.304    -136.015
  C     -652.532     662.439    -135.926
  O     -652.722     663.439    -136.932
  C     -653.726     662.462    -134.990
  O     -654.440     663.698    -135.014
  C     -654.607     661.309    -135.501
  N     -659.193     661.561    -133.318
  C     -658.767     661.919    -134.546
  N     -657.556     661.725    -135.101
  C     -656.748     661.061    -134.264
  C     -657.038     660.610    -132.992
  C     -658.329     660.893    -132.494
  N     -658.737     660.576    -131.216
  N     -655.938     659.990    -132.418
  C     -654.991     660.092    -133.325
  N     -655.418     660.761    -134.444
  O     -649.584     658.090    -135.585
  O     -650.325     656.639    -137.561
  H     -654.810     663.791    -135.917
  H     -649.654     657.193    -135.189
  H     -659.499     662.441    -135.155
  H     -653.961     659.752    -133.221
  H     -655.263     661.630    -136.327
  H     -653.388     662.265    -133.971
  H     -651.602     662.622    -135.385
  H     -652.741     661.113    -137.653
  H     -650.432     660.772    -136.641
  H     -659.637     660.919    -130.922
  H     -658.065     660.177    -130.578
  H     -651.196     659.928    -135.281
  P     -651.399     663.986    -137.673
  C     -651.421     666.413    -136.730
  O     -650.774     665.137    -136.752
  O     -651.985     664.788    -138.921
  O     -650.454     662.900    -138.093
  H     -651.335     664.796    -139.654
  H     -650.890     667.071    -136.074
  H     -652.426     666.297    -136.382
  H     -651.431     666.825    -137.717

 6  7  8  9  10  11  12  13  14  15  25  28  32  33  34  35 0
 6-311+G(2d,p)
 ****
 36  39  40 0
 6-311+G(2d,p)
 ****
 1  2  3  4  5  16  17  18  19  20  21  22  23  24 0
 3-21G
 ****
 26  27  29  30  31  37  38  41  42  43  44  45  46  47  48 0
 3-21G
 ****


