%nproc=1
%NoSave
%Mem=1900MB
#P OB98/GEN NMR

erre ene a

0 1
  C       -7.556      26.929     724.930
  O       -6.737      25.835     724.507
  P       -6.266      24.808     725.643
  C       -4.214      26.259     726.303
  O       -5.413      25.624     726.730
  C       -3.460      26.820     727.510
  O       -3.320      25.834     728.556
  C       -2.038      27.259     727.185
  O       -2.033      28.491     726.480
  C       -1.433      27.330     728.582
  O       -1.821      28.550     729.237
  C       -2.101      26.134     729.281
  N        2.278      24.162     731.050
  C        1.717      25.384     731.192
  N        0.547      25.831     730.683
  C       -0.071      24.863     729.981
  C        0.380      23.578     729.758
  C        1.616      23.229     730.332
  N        2.199      21.988     730.174
  N       -0.524      22.873     728.984
  C       -1.487      23.732     728.729
  N       -1.265      24.948     729.315
  O       -5.175      23.909     724.897
  O       -7.379      23.979     726.196
  H       -1.311      28.610     730.071
  H       -5.534      23.009     724.737
  H        2.284      26.099     731.782
  H       -2.363      23.523     728.124
  H       -2.381      26.362     730.315
  H       -0.337      27.293     728.580
  H       -1.532      26.488     726.592
  H       -4.036      27.669     727.903
  H       -4.444      27.068     725.605
  H        3.120      21.847     730.550
  H        1.753      21.313     729.568
  H       -3.605      25.532     725.758
  P       -1.846      28.440     724.886
  C        0.697      28.655     725.180
  O       -0.362      27.851     724.697
  O       -1.659      29.985     724.530
  O       -2.927      27.724     724.148
  H       -1.040      30.418     725.142
  H        1.640      28.125     725.026
  H        0.565      28.844     726.258
  H        0.727      29.605     724.643
  H       -7.802      27.538     724.085
  H       -7.024      27.516     725.650
  H       -8.455      26.552     725.372

 3  4  5  6  7  8  9  10  11  12  22  25  29  30  31  32 0
 6-311+G(2d,p)
 ****
 33  36  37 0
 6-311+G(2d,p)
 ****
 1  2  13  14  15  16  17  18  19  20  21  23  24  26 0
 3-21G
 ****
 27  28  34  35  38  39  40  41  42  43  44  45  46  47  48 0
 3-21G
 ****


