%nproc=1
%NoSave
%Mem=1900MB
#P OB98/GEN NMR

erre ene a

0 1
  C      -29.996      39.057     -60.993
  O      -30.018      38.151     -59.909
  H      -29.589      40.019     -60.671
  H      -29.357      38.649     -61.781
  H      -31.004      39.194     -61.393
  P      -30.897      38.587     -58.638
  C      -29.127      37.970     -56.855
  O      -30.404      37.682     -57.404
  C      -28.411      36.673     -56.489
  O      -29.323      35.856     -55.709
  C      -27.949      35.847     -57.702
  O      -26.572      35.477     -57.563
  C      -28.797      34.591     -57.639
  O      -28.105      33.431     -58.089
  C      -29.161      34.506     -56.163
  N      -31.008      29.801     -55.510
  C      -29.769      30.306     -55.328
  N      -29.364      31.588     -55.426
  C      -30.400      32.393     -55.716
  C      -31.722      32.027     -55.906
  C      -32.012      30.655     -55.813
  N      -33.263      30.133     -56.053
  N      -32.500      33.131     -56.196
  C      -31.654      34.141     -56.223
  N      -30.372      33.741     -55.954
  O      -32.349      38.002     -58.981
  O      -30.942      40.055     -58.389
  H      -27.378      33.265     -57.462
  H      -32.981      38.743     -59.033
  H      -28.998      29.583     -55.077
  H      -31.905      35.164     -56.476
  H      -28.359      34.048     -55.571
  H      -29.687      34.729     -58.264
  H      -28.089      36.377     -58.648
  H      -27.559      36.912     -55.842
  H      -29.245      38.579     -55.952
  H      -33.357      29.131     -56.079
  H      -33.987      30.753     -56.388
  H      -28.542      38.536     -57.587
  P      -25.556      36.108     -58.640
  C      -25.462      34.147     -60.341
  O      -24.771      34.899     -59.350
  O      -24.446      36.809     -57.725
  O      -26.195      37.087     -59.567
  H      -24.373      37.754     -57.956
  H      -24.818      33.382     -60.722
  H      -25.757      34.795     -61.140
  H      -26.331      33.698     -59.907

 6  7  8  9  10  11  12  13  14  15  25  28  32  33  34  35 0
 6-311+G(2d,p)
 ****
 36  39  40 0
 6-311+G(2d,p)
 ****
 1  2  3  4  5  16  17  18  19  20  21  22  23  24 0
 3-21G
 ****
 26  27  29  30  31  37  38  41  42  43  44  45  46  47  48 0
 3-21G
 ****


