%nproc=1
%NoSave
%Mem=1900MB
#P OB98/GEN NMR

erre ene a

0 1
  C      506.774     475.255      27.153
  O      507.517     475.130      28.356
  P      506.841     475.448      29.783
  C      505.691     477.541      30.768
  O      506.546     477.024      29.761
  C      505.204     478.939      30.380
  O      504.697     478.910      29.020
  C      504.069     479.474      31.233
  O      504.555     479.926      32.490
  C      503.505     480.558      30.320
  O      504.315     481.746      30.388
  C      503.652     479.903      28.930
  N      502.403     479.320      28.439
  C      501.729     480.037      27.443
  O      502.179     481.089      27.005
  N      500.563     479.510      26.940
  C      500.098     478.389      27.403
  N      498.969     477.885      26.817
  C      500.747     477.634      28.493
  C      501.895     478.149      28.952
  O      507.622     474.982      30.963
  O      505.378     474.817      29.688
  H      504.031     482.324      29.658
  H      505.334     473.866      29.963
  H      500.313     476.707      28.847
  H      502.442     477.645      29.735
  H      504.001     480.645      28.199
  H      502.471     480.839      30.561
  H      503.308     478.693      31.399
  H      506.065     479.614      30.399
  H      498.659     478.342      25.962
  H      506.253     477.612      31.703
  H      498.718     476.906      26.907
  H      504.847     476.857      30.915
  P      503.544     479.870      33.736
  C      501.126     480.824      33.679
  O      502.505     481.085      33.523
  O      504.453     480.336      34.971
  O      502.918     478.530      33.957
  H      504.739     479.558      35.492
  H      500.594     481.780      33.743
  H      500.949     480.262      34.604
  H      500.745     480.265      32.826
  H      507.397     475.001      26.321
  H      506.432     476.264      27.048
  H      505.933     474.595      27.183

 3  4  5  6  7  8  9  10  11  12  13  23  27  28  29  30  32 0
 6-311+G(2d,p)
 ****
 34  35 0
 6-311+G(2d,p)
 ****
 1  2  14  15  16  17  18  19  20  21  22  24  25  26 0
 3-21G
 ****
 31  33  36  37  38  39  40  41  42  43  44  45  46 0
 3-21G
 ****


