%nproc=1
%NoSave
%Mem=1900MB
#P OB98/GEN NMR

erre ene a

0 1
  C      245.905      71.846     341.039
  O      244.701      72.579     341.147
  H      246.639      72.452     340.505
  H      245.734      70.921     340.481
  H      246.296      71.611     342.034
  P      243.492      71.868     341.925
  C      243.552      73.346     344.062
  O      243.782      72.066     343.490
  C      244.831      73.848     344.729
  O      245.852      74.063     343.726
  C      244.672      75.187     345.438
  O      244.048      75.056     346.701
  C      246.117      75.648     345.519
  O      246.792      75.066     346.642
  C      246.713      75.120     344.210
  N      249.654      78.943     342.539
  C      249.836      78.023     343.512
  N      249.007      77.027     343.888
  C      247.904      77.016     343.121
  C      247.582      77.885     342.093
  C      248.521      78.890     341.804
  N      248.326      79.841     340.830
  N      246.341      77.580     341.569
  C      245.923      76.540     342.260
  N      246.836      76.162     343.208
  O      243.771      70.311     341.679
  O      242.128      72.265     341.474
  H      247.723      75.353     346.581
  H      243.194      69.985     340.963
  H      250.766      78.105     344.070
  H      244.976      76.036     342.121
  H      247.710      74.687     344.351
  H      246.174      76.732     345.622
  H      244.112      75.887     344.802
  H      245.191      73.078     345.423
  H      242.761      73.270     344.816
  H      243.231      74.034     343.275
  H      249.010      80.573     340.724
  H      247.434      79.881     340.355
  P      242.464      75.297     346.779
  C      242.068      72.923     347.787
  O      241.763      73.856     346.757
  O      242.100      75.919     345.349
  O      242.025      76.182     347.897
  H      241.388      76.580     345.447
  H      241.519      72.019     347.623
  H      241.797      73.338     348.736
  H      243.117      72.711     347.777

 6  7  8  9  10  11  12  13  14  15  25  28  32  33  34  35 0
 6-311+G(2d,p)
 ****
 36  37  40 0
 6-311+G(2d,p)
 ****
 1  2  3  4  5  16  17  18  19  20  21  22  23  24 0
 3-21G
 ****
 26  27  29  30  31  38  39 41  42  43  44  45  46  47  48 0
 3-21G
 ****


