%nproc=1
%NoSave
%Mem=1900MB
#P OB98/GEN NMR

erre ene a

0 1
  C     -147.975     -58.854    -646.878
  O     -148.335     -57.834    -645.970
  H     -148.467     -58.684    -647.838
  H     -146.891     -58.831    -647.022
  H     -148.253     -59.837    -646.483
  P     -149.860     -57.806    -645.479
  C     -151.919     -56.346    -646.122
  O     -150.500     -56.480    -646.119
  C     -152.323     -54.947    -646.581
  O     -151.925     -53.988    -645.555
  C     -151.671     -54.525    -647.899
  O     -152.621     -53.779    -648.669
  C     -150.540     -53.612    -647.459
  O     -150.166     -52.679    -648.472
  C     -151.136     -52.973    -646.207
  N     -149.148     -48.788    -644.051
  C     -150.232     -48.976    -644.829
  N     -150.700     -50.124    -645.360
  C     -149.936     -51.159    -644.969
  C     -148.796     -51.132    -644.185
  C     -148.387     -49.869    -643.726
  N     -147.258     -49.663    -642.964
  N     -148.273     -52.407    -644.042
  C     -149.087     -53.186    -644.728
  N     -150.101     -52.482    -645.308
  O     -149.712     -57.436    -643.924
  O     -150.635     -59.069    -645.682
  H     -150.914     -52.067    -648.619
  H     -149.470     -58.238    -643.422
  H     -150.803     -48.079    -645.055
  H     -148.965     -54.258    -644.840
  H     -151.792     -52.117    -646.440
  H     -149.655     -54.210    -647.205
  H     -151.313     -55.369    -648.486
  H     -153.414     -54.903    -646.642
  H     -152.296     -56.528    -645.104
  H     -147.013     -48.715    -642.724
  H     -146.660     -50.448    -642.764
  H     -152.346     -57.097    -646.801
  P     -153.412     -54.582    -649.819
  C     -152.901     -55.426    -652.197
  O     -152.541     -54.540    -651.162
  O     -154.666     -53.628    -650.134
  O     -153.865     -55.943    -649.383
  H     -155.496     -54.144    -650.116
  H     -152.240     -55.291    -653.028
  H     -153.906     -55.226    -652.505
  H     -152.830     -56.434    -651.845

 6  7  8  9  10  11  12  13  14  15  25  28  32  33  34  35 0
 6-311+G(2d,p)
 ****
 36  39  40 0
 6-311+G(2d,p)
 ****
 1  2  3  4  5  16  17  18  19  20  21  22  23  24 0
 3-21G
 ****
 26  27  29  30  31  37  38  41  42  43  44  45  46  47 0
 3-21G
 ****
 48 0
 3-21G
 ****


