%nproc=1
%NoSave
%Mem=1900MB
#P OB98/GEN NMR

erre ene a

0 1
  C     -434.516     272.054    -257.656
  O     -433.510     273.049    -257.636
  H     -434.572     271.597    -258.651
  H     -434.264     271.277    -256.929
  H     -435.486     272.485    -257.385
  P     -433.709     274.272    -258.661
  C     -433.053     272.970    -260.806
  O     -434.088     273.631    -260.085
  C     -433.571     272.529    -262.179
  O     -433.877     273.717    -262.955
  C     -432.559     271.677    -262.986
  O     -433.188     270.486    -263.472
  C     -432.204     272.562    -264.178
  O     -431.967     271.815    -265.362
  C     -433.418     273.470    -264.295
  N     -433.283     275.780    -268.833
  C     -433.974     274.702    -268.407
  N     -434.051     274.193    -267.154
  C     -433.321     274.949    -266.294
  C     -432.583     276.084    -266.588
  C     -432.565     276.494    -267.928
  N     -431.816     277.557    -268.390
  N     -431.968     276.570    -265.453
  C     -432.292     275.719    -264.492
  N     -433.105     274.710    -264.962
  O     -432.205     274.803    -258.880
  O     -434.606     275.356    -258.171
  H     -431.988     272.456    -266.106
  H     -432.154     275.726    -258.567
  H     -434.548     274.167    -269.162
  H     -431.944     275.762    -263.470
  H     -434.242     272.992    -264.838
  H     -431.298     273.131    -263.931
  H     -431.673     271.415    -262.402
  H     -434.509     271.975    -262.038
  H     -432.718     272.082    -260.248
  H     -431.758     277.703    -269.384
  H     -431.187     278.007    -267.738
  H     -432.207     273.664    -260.915
  P     -432.706     269.109    -262.792
  C     -431.000     268.493    -264.671
  O     -431.200     268.804    -263.281
  O     -433.588     268.002    -263.546
  O     -432.918     269.054    -261.316
  H     -434.096     267.476    -262.898
  H     -429.960     268.315    -264.851
  H     -431.330     269.315    -265.271
  H     -431.561     267.618    -264.925

 6  7  8  9  10  11  12  13  14  15  25  28  32  33  34  35 0
 6-311+G(2d,p)
 ****
 36  39  40 0
 6-311+G(2d,p)
 ****
 1  2  3  4  5  16  17  18  19  20  21  22  23  24 0
 3-21G
 ****
 26  27  29  30  31  37  38  41  42  43  44  45  46  47  48 0
 3-21G
 ****


