%nproc=1
%NoSave
%Mem=1900MB
#P OB98/GEN NMR

erre ene a

0 1
  C      974.661    -578.501    -252.752
  O      974.955    -579.710    -252.071
  H      974.419    -577.736    -252.011
  H      973.804    -578.633    -253.410
  H      975.530    -578.172    -253.331
  P      975.339    -581.001    -252.941
  C      977.275    -582.713    -252.924
  O      976.782    -581.473    -252.420
  C      978.759    -582.847    -252.606
  O      979.529    -581.892    -253.363
  C      979.109    -582.602    -251.134
  O      978.843    -583.767    -250.361
  C      980.584    -582.280    -251.250
  O      981.336    -583.498    -251.447
  C      980.615    -581.423    -252.528
  N      982.934    -577.078    -251.282
  C      983.438    -578.372    -251.357
  N      984.727    -578.525    -250.989
  N      982.725    -579.400    -251.709
  C      981.431    -579.114    -251.972
  C      980.815    -577.876    -251.920
  C      981.613    -576.728    -251.569
  O      981.216    -575.567    -251.520
  N      979.471    -577.978    -252.187
  C      979.293    -579.258    -252.429
  N      980.448    -579.987    -252.302
  O      975.264    -580.835    -254.434
  O      974.355    -582.142    -252.411
  H      980.998    -583.897    -252.263
  H      973.536    -582.180    -252.946
  H      983.523    -576.317    -250.975
  H      978.330    -579.704    -252.717
  H      981.544    -581.548    -253.093
  H      980.988    -581.789    -250.362
  H      985.222    -577.832    -250.446
  H      978.590    -581.726    -250.734
  H      985.104    -579.464    -250.993
  H      979.083    -583.847    -252.924
  H      977.117    -582.723    -254.005
  H      976.728    -583.546    -252.472
  P      979.080    -583.784    -248.774
  C      977.750    -584.725    -246.762
  O      977.816    -584.591    -248.177
  O      979.303    -582.434    -248.166
  O      980.279    -584.806    -248.554
  H      981.173    -584.387    -248.599
  H      976.872    -585.276    -246.496
  H      977.712    -583.754    -246.313
  H      978.617    -585.246    -246.412

 6  7  8  9  10  11  12  13  14  15  26  29  33  34 0
 6-311+G(2d,p)
 ****
 36  38  39  40  41 0
 6-311+G(2d,p)
 ****
 1  2  3  4  5  16  17  18  19  20  21  22  23  24  25 0
 3-21G
 ****
 27  28  30  31  32  35  37  42  43  44  45  46  47 0
 3-21G
 ****
 48  49 0
 3-21G
 ****


