%nproc=1
%NoSave
%Mem=1900MB
#P OB98/GEN NMR

erre ene a

0 1
  C      -56.819     -30.380    -138.745
  O      -57.296     -29.780    -137.558
  H      -55.807     -30.029    -138.963
  H      -56.795     -31.465    -138.608
  H      -57.483     -30.144    -139.581
  P      -57.386     -28.178    -137.557
  C      -59.457     -27.598    -138.999
  O      -58.945     -27.803    -137.690
  C      -60.938     -27.234    -138.929
  O      -61.632     -28.294    -138.219
  C      -61.226     -25.907    -138.208
  O      -62.085     -25.079    -139.002
  C      -61.975     -26.321    -136.955
  O      -62.965     -25.376    -136.562
  C      -62.585     -27.659    -137.357
  N      -66.141     -30.548    -135.122
  C      -65.987     -30.156    -136.405
  N      -64.967     -29.467    -136.954
  C      -64.017     -29.210    -136.037
  C      -64.024     -29.567    -134.699
  C      -65.162     -30.251    -134.237
  N      -65.345     -30.603    -132.917
  N      -62.878     -29.122    -134.066
  C      -62.211     -28.469    -134.998
  N      -62.869     -28.483    -136.201
  O      -56.778     -27.778    -138.985
  O      -56.651     -27.515    -136.443
  H      -63.406     -25.730    -135.769
  H      -55.984     -27.227    -138.845
  H      -66.795     -30.425    -137.080
  H      -61.282     -27.934    -134.848
  H      -63.515     -27.528    -137.924
  H      -61.260     -26.438    -136.133
  H      -60.314     -25.355    -137.964
  H      -61.343     -27.212    -139.949
  H      -59.342     -28.517    -139.585
  H      -66.238     -30.985    -132.653
  H      -64.668     -30.285    -132.236
  H      -58.889     -26.797    -139.483
  P      -61.548     -23.594    -139.314
  C      -59.783     -24.500    -140.992
  O      -60.868     -23.607    -140.771
  O      -60.313     -23.435    -138.309
  O      -62.569     -22.527    -139.096
  H      -60.443     -22.649    -137.743
  H      -59.436     -24.397    -141.999
  H      -60.110     -25.506    -140.828
  H      -58.987     -24.269    -140.315

 6  7  8  9  10  11  12  13  14  15  25  28  32  33  34  35 0
 6-311+G(2d,p)
 ****
 36  39  40 0
 6-311+G(2d,p)
 ****
 1  2  3  4  5  16  17  18  19  20  21  22  23  24 0
 3-21G
 ****
 26  27  29  30  31  37  38  41  42  43  44  45  46  47  48 0
 3-21G
 ****


