%nproc=1
%NoSave
%Mem=1900MB
#P OB98/GEN NMR

erre ene a

0 1
  C      564.995    -242.455     489.168
  O      565.420    -242.148     490.491
  H      564.312    -243.313     489.185
  H      564.476    -241.588     488.749
  H      565.866    -242.691     488.544
  P      566.172    -243.295     491.296
  C      568.586    -242.367     491.092
  O      567.671    -243.380     490.724
  C      569.594    -242.899     492.112
  O      570.176    -244.112     491.557
  C      570.746    -241.923     492.453
  O      570.770    -241.672     493.855
  C      572.009    -242.679     492.062
  O      573.074    -242.511     493.005
  C      571.547    -244.132     491.991
  N      575.575    -247.233     491.720
  C      574.764    -246.941     492.746
  N      573.643    -246.187     492.737
  C      573.376    -245.742     491.485
  C      574.111    -246.000     490.338
  C      575.279    -246.753     490.499
  N      576.147    -247.026     489.449
  N      573.529    -245.375     489.233
  C      572.502    -244.723     489.721
  N      572.374    -244.909     491.088
  O      565.490    -244.645     490.758
  O      566.077    -243.195     492.784
  H      573.178    -241.544     493.125
  H      565.239    -245.215     491.522
  H      575.039    -247.343     493.716
  H      571.837    -244.063     489.167
  H      571.581    -244.618     492.985
  H      572.338    -242.334     491.078
  H      570.668    -240.967     491.898
  H      569.055    -243.192     493.012
  H      568.026    -241.529     491.550
  H      577.010    -247.505     489.662
  H      575.980    -246.587     488.554
  H      569.092    -241.986     490.191
  P      570.035    -240.328     494.364
  C      567.842    -241.396     495.302
  O      568.456    -240.597     494.282
  O      570.284    -239.296     493.147
  O      570.534    -239.814     495.663
  H      570.286    -238.398     493.492
  H      566.794    -241.481     495.106
  H      567.990    -240.933     496.255
  H      568.284    -242.370     495.306

 6  7  8  9  10  11  12  13  14  15  25  28  32  33  34  35 0
 6-311+G(2d,p)
 ****
 36  39  40 0
 6-311+G(2d,p)
 ****
 1  2  3  4  5  16  17  18  19  20  21  22  23  24 0
 3-21G
 ****
 26  27  29  30  31  37  38  41  42  43  44  45  46  47  48 0
 3-21G
 ****


