%nproc=1
%NoSave
%Mem=1900MB
#P OB98/GEN NMR

erre ene a

0 1
  C     -273.475    -687.905     279.790
  O     -274.384    -688.659     279.013
  H     -274.026    -687.103     280.288
  H     -272.709    -687.462     279.147
  H     -273.006    -688.535     280.548
  P     -273.761    -689.883     278.179
  C     -272.307    -690.091     276.038
  O     -273.000    -689.223     276.924
  C     -272.688    -689.788     274.593
  O     -272.155    -688.513     274.185
  C     -272.182    -690.811     273.579
  O     -273.048    -691.936     273.515
  C     -272.193    -689.995     272.295
  O     -273.517    -689.920     271.723
  C     -271.735    -688.614     272.795
  N     -268.018    -686.937     269.816
  C     -269.384    -686.954     269.610
  N     -269.823    -686.503     268.419
  N     -270.239    -687.381     270.499
  C     -269.660    -687.829     271.637
  C     -268.323    -687.851     271.957
  C     -267.383    -687.351     270.981
  O     -266.167    -687.243     271.123
  N     -268.124    -688.368     273.210
  C     -269.333    -688.693     273.631
  N     -270.293    -688.402     272.705
  O     -275.046    -690.568     277.502
  O     -272.968    -690.863     278.971
  H     -273.742    -690.778     271.330
  H     -274.879    -691.521     277.403
  H     -267.412    -686.576     269.103
  H     -269.559    -689.145     274.586
  H     -272.212    -687.797     272.247
  H     -271.546    -690.430     271.535
  H     -269.220    -686.481     267.605
  H     -271.154    -691.118     273.818
  H     -270.823    -686.533     268.251
  H     -273.782    -689.718     274.550
  H     -272.572    -691.127     276.274
  H     -271.229    -689.966     276.180
  P     -272.473    -693.278     272.831
  C     -271.820    -693.966     270.410
  O     -272.396    -692.982     271.261
  O     -273.700    -694.302     272.956
  O     -271.224    -693.813     273.449
  H     -273.382    -695.211     272.821
  H     -271.843    -693.620     269.398
  H     -272.378    -694.876     270.488
  H     -270.806    -694.142     270.704

 6  7  8  9  10  11  12  13  14  15  26  29  33  34 0
 6-311+G(2d,p)
 ****
 36  38  39  40  41 0
 6-311+G(2d,p)
 ****
 1  2  3  4  5  16  17  18  19  20  21  22  23  24  25 0
 3-21G
 ****
 27  28  30  31  32  35  37  42  43  44  45  46  47 0
 3-21G
 ****
 48  49 0
 3-21G
 ****


