%nproc=1
%NoSave
%Mem=1900MB
#P OB98/GEN NMR

erre ene a

0 1
  C       52.753      23.905     -65.286
  O       52.596      22.570     -64.849
  H       53.756      24.054     -65.694
  H       52.020      24.109     -66.072
  H       52.584      24.597     -64.456
  P       53.608      22.057     -63.715
  C       56.108      21.337     -63.774
  O       55.051      22.035     -64.419
  C       57.366      21.425     -64.631
  O       57.562      22.784     -65.086
  C       58.643      21.047     -63.890
  O       58.845      19.646     -63.834
  C       59.687      21.722     -64.762
  O       59.899      20.945     -65.954
  C       58.992      23.048     -65.107
  N       62.486      26.493     -63.647
  C       62.467      25.601     -64.662
  N       61.490      24.735     -64.996
  C       60.444      24.854     -64.164
  C       60.316      25.720     -63.091
  C       61.406      26.570     -62.836
  N       61.443      27.457     -61.783
  N       59.103      25.534     -62.458
  C       58.504      24.586     -63.150
  N       59.288      24.120     -64.171
  O       53.257      20.503     -63.566
  O       53.564      22.794     -62.418
  H       60.513      21.452     -66.520
  H       53.655      20.141     -62.751
  H       63.356      25.580     -65.286
  H       57.515      24.197     -62.947
  H       59.249      23.411     -66.108
  H       60.655      21.818     -64.265
  H       58.672      21.493     -62.889
  H       57.224      20.795     -65.518
  H       55.819      20.288     -63.651
  H       62.322      27.912     -61.596
  H       60.710      27.417     -61.090
  H       56.290      21.780     -62.790
  P       59.406      19.032     -62.459
  C       61.548      19.393     -61.034
  O       60.890      19.616     -62.276
  O       59.657      17.497     -62.830
  O       58.494      19.193     -61.289
  H       59.510      16.924     -62.053
  H       62.521      19.837     -61.061
  H       61.641      18.341     -60.863
  H       60.977      19.834     -60.244

 6  7  8  9  10  11  12  13  14  15  25  28  32  33  34  35 0
 6-311+G(2d,p)
 ****
 36  39  40 0
 6-311+G(2d,p)
 ****
 1  2  3  4  5  16  17  18  19  20  21  22  23  24 0
 3-21G
 ****
 26  27  29  30  31  37  38  41  42  43  44  45  46  47 0
 3-21G
 ****
 48 0
 3-21G
 ****


