%nproc=1
%NoSave
%Mem=1900MB
#P OB98/GEN NMR

erre ene a

0 1
  C       29.002    -178.265     288.520
  O       30.052    -177.699     287.760
  P       31.234    -178.621     287.201
  C       33.072    -177.471     288.579
  O       32.388    -178.691     288.312
  C       34.039    -177.644     289.747
  O       33.327    -177.988     290.958
  C       35.048    -178.766     289.554
  O       36.049    -178.425     288.613
  C       35.545    -178.961     290.981
  O       36.532    -177.974     291.318
  C       34.252    -178.726     291.793
  N       33.665    -179.968     292.270
  C       34.284    -180.557     293.378
  O       35.315    -180.073     293.846
  N       33.720    -181.686     293.919
  C       32.709    -182.247     293.333
  N       32.158    -183.327     293.947
  C       32.129    -181.745     292.071
  C       32.636    -180.601     291.612
  O       31.710    -178.286     285.827
  O       30.621    -180.102     287.241
  H       30.766    -180.525     286.371
  H       36.641    -178.011     292.287
  H       31.332    -182.288     291.586
  H       32.258    -180.148     290.703
  H       34.459    -178.080     292.653
  H       36.003    -179.942     291.132
  H       34.531    -179.675     289.222
  H       34.553    -176.689     289.911
  H       32.570    -183.629     294.821
  H       32.334    -176.701     288.827
  H       31.206    -183.628     293.765
  H       33.609    -177.154     287.679
  P       36.953    -179.623     288.046
  C       39.264    -178.680     288.739
  O       38.283    -179.682     288.933
  O       37.461    -179.065     286.632
  O       36.233    -180.923     287.890
  H       37.504    -179.794     285.989
  H       39.909    -178.650     289.620
  H       38.807    -177.696     288.601
  H       39.869    -178.929     287.865
  H       28.312    -177.497     288.803
  H       29.405    -178.724     289.399
  H       28.495    -179.002     287.934

 3  4  5  6  7  8  9  10  11  12  13  24  27  28  29  30  32 0
 6-311+G(2d,p)
 ****
 34  35 0
 6-311+G(2d,p)
 ****
 1  2  14  15  16  17  18  19  20  21  22  23  25  26 0
 3-21G
 ****
 31  33  36  37  38  39  40  41  42  43  44  45  46 0
 3-21G
 ****


