%nproc=1
%NoSave
%Mem=1900MB
#P OB98/GEN NMR

erre ene a

0 1
  C       -3.996    -230.998     195.184
  O       -5.000    -231.736     194.477
  P       -5.373    -231.268     192.989
  C       -7.953    -231.398     193.313
  O       -6.812    -231.866     192.608
  C       -8.983    -232.521     193.471
  O       -8.825    -233.221     194.722
  C      -10.425    -232.035     193.463
  O      -10.899    -231.837     192.139
  C      -11.139    -233.213     194.107
  O      -11.336    -234.257     193.132
  C      -10.128    -233.662     195.168
  N      -12.682    -234.304     199.562
  C      -12.670    -235.017     198.413
  N      -11.978    -234.772     197.280
  C      -11.224    -233.669     197.414
  C      -11.134    -232.841     198.522
  C      -11.909    -233.195     199.638
  N      -11.916    -232.465     200.806
  N      -10.266    -231.796     198.284
  C       -9.826    -231.998     197.057
  N      -10.384    -233.112     196.488
  O       -4.368    -232.121     192.080
  O       -5.208    -229.801     192.759
  H      -11.913    -233.888     192.436
  H       -4.104    -231.598     191.300
  H      -13.300    -235.901     198.403
  H       -9.110    -231.373     196.545
  H      -10.089    -234.753     195.273
  H      -12.127    -232.946     194.493
  H      -10.540    -231.137     194.084
  H       -8.831    -233.238     192.652
  H       -8.399    -230.552     192.785
  H      -12.475    -232.797     201.573
  H      -11.324    -231.650     200.875
  H       -7.635    -231.019     194.290
  P      -11.361    -230.353     191.739
  C      -13.381    -231.109     190.289
  O      -12.107    -230.496     190.328
  O       -9.978    -229.631     191.377
  O      -12.111    -229.630     192.809
  H      -10.038    -228.676     191.578
  H      -13.864    -230.855     189.340
  H      -14.014    -230.757     191.110
  H      -13.272    -232.196     190.349
  H       -3.857    -231.425     196.155
  H       -4.306    -229.979     195.283
  H       -3.075    -231.039     194.641

 3  4  5  6  7  8  9  10  11  12  22  25  29  30  31  32 0
 6-311+G(2d,p)
 ****
 33  36  37 0
 6-311+G(2d,p)
 ****
 1  2  13  14  15  16  17  18  19  20  21  23  24  26 0
 3-21G
 ****
 27  28  34  35  38  39  40  41  42  43  44  45  46  47  48 0
 3-21G
 ****


