%nproc=1
%NoSave
%Mem=1900MB
#P OB98/GEN NMR

erre ene a

0 1
  C      -84.265    -100.066     -53.417
  O      -83.961     -99.127     -52.408
  H      -83.365    -100.640     -53.644
  H      -84.584     -99.545     -54.323
  H      -85.046    -100.757     -53.091
  P      -85.161     -98.353     -51.681
  C      -84.550     -99.441     -49.425
  O      -85.560     -99.235     -50.401
  C      -85.148    -100.003     -48.132
  O      -85.833    -101.252     -48.435
  C      -84.108    -100.303     -47.041
  O      -84.747    -100.106     -45.774
  C      -83.836    -101.777     -47.273
  O      -83.216    -102.371     -46.154
  C      -85.242    -102.277     -47.612
  N      -85.228    -103.577     -48.277
  C      -84.840    -104.666     -47.507
  O      -84.489    -104.569     -46.330
  N      -84.822    -105.877     -48.141
  C      -85.090    -106.089     -49.461
  O      -85.027    -107.193     -49.987
  C      -85.452    -104.893     -50.241
  C      -85.508    -103.711     -49.622
  O      -86.307     -97.968     -52.555
  O      -84.462     -97.075     -51.017
  H      -83.107    -103.335     -46.299
  H      -85.093     -96.332     -50.975
  H      -84.552    -106.679     -47.593
  H      -85.661    -105.025     -51.293
  H      -85.772    -102.813     -50.168
  H      -85.850    -102.370     -46.701
  H      -83.166    -101.916     -48.128
  H      -83.212     -99.683     -47.120
  H      -85.910     -99.304     -47.766
  H      -84.072     -98.476     -49.224
  H      -83.798    -100.134     -49.817
  P      -84.742     -98.686     -45.028
  C      -87.299     -98.441     -45.217
  O      -86.032     -97.854     -45.496
  O      -83.455     -97.936     -45.143
  O      -85.061     -99.031     -43.497
  H      -84.660     -98.355     -42.917
  H      -88.076     -97.798     -45.574
  H      -87.405     -98.576     -44.161
  H      -87.368     -99.390     -45.707

 6  7  8  9  10  11  12  13  14  15  16  26  31  32  33  34  35 0
 6-311+G(2d,p)
 ****
 36  37 0
 6-311+G(2d,p)
 ****
 1  2  3  4  5  17  18  19  20  21  22  23  24  25 0
 3-21G
 ****
 27  28  29  30  38  39  40  41  42  43  44  45 0
 3-21G
 ****


