%nproc=1
%NoSave
%Mem=1900MB
#P OB98/GEN NMR

erre ene a

0 1
  C        0.882     489.718     394.138
  O        0.955     488.512     394.874
  H        0.028     490.310     394.483
  H        1.797     490.295     394.315
  H        0.787     489.514     393.071
  P       -0.138     487.380     394.542
  C       -1.614     487.379     396.681
  O       -1.482     487.797     395.331
  C       -2.978     487.806     397.236
  O       -3.010     489.252     397.318
  C       -4.176     487.344     396.386
  O       -5.241     486.959     397.269
  C       -4.579     488.608     395.644
  O       -5.956     488.596     395.256
  C       -4.239     489.673     396.667
  N       -6.555     493.108     393.721
  C       -7.032     492.062     394.423
  N       -6.350     491.227     395.229
  C       -5.054     491.606     395.337
  C       -4.427     492.661     394.683
  C       -5.233     493.424     393.823
  N       -4.750     494.453     393.060
  N       -3.079     492.680     395.004
  C       -2.896     491.663     395.812
  N       -4.070     490.974     396.035
  O        0.408     486.124     395.375
  O       -0.313     487.061     393.096
  H       -6.028     488.102     394.408
  H        1.039     485.623     394.832
  H       -8.092     491.852     394.310
  H       -1.959     491.343     396.227
  H       -5.010     489.793     397.447
  H       -3.963     488.718     394.742
  H       -3.944     486.516     395.702
  H       -3.060     487.423     398.263
  H       -0.818     487.852     397.281
  H       -5.378     494.881     392.383
  H       -3.755     494.626     393.037
  H       -1.497     486.291     396.740
  P       -5.219     485.460     397.841
  C       -7.580     484.746     397.005
  O       -6.182     484.549     396.929
  O       -6.032     485.593     399.216
  O       -3.842     484.915     398.058
  H       -5.679     484.957     399.876
  H       -8.073     484.066     396.342
  H       -7.814     485.751     396.724
  H       -7.911     484.569     398.007

 6  7  8  9  10  11  12  13  14  15  25  28  32  33  34  35 0
 6-311+G(2d,p)
 ****
 36  39  40 0
 6-311+G(2d,p)
 ****
 1  2  3  4  5  16  17  18  19  20  21  22  23  24 0
 3-21G
 ****
 26  27  29  30  31  37  38  41  42  43  44  45  46  47 0
 3-21G
 ****
 48 0
 3-21G
 ****


