%nproc=1
%NoSave
%Mem=1900MB
#P OB98/GEN NMR

erre ene a

0 1
  C     -114.110      85.751     246.614
  O     -115.337      85.180     246.211
  H     -114.316      86.702     247.112
  H     -113.476      85.944     245.745
  H     -113.592      85.095     247.317
  P     -115.311      83.770     245.447
  C     -114.598      84.540     243.078
  O     -115.666      84.143     243.923
  C     -114.983      84.346     241.615
  O     -115.188      82.950     241.307
  C     -116.283      85.023     241.198
  O     -116.182      86.432     241.076
  C     -116.517      84.342     239.862
  O     -115.630      84.897     238.875
  C     -116.136      82.883     240.204
  N     -117.293      82.070     240.570
  C     -117.634      81.033     239.694
  O     -116.984      80.839     238.668
  N     -118.729      80.254     239.983
  C     -119.437      80.506     241.040
  N     -120.515      79.707     241.274
  C     -119.127      81.600     241.980
  C     -118.054      82.332     241.690
  O     -116.137      82.681     246.051
  O     -113.757      83.404     245.334
  H     -115.833      85.848     238.815
  H     -113.685      82.532     244.876
  H     -119.764      81.786     242.830
  H     -117.765      83.159     242.329
  H     -115.620      82.407     239.362
  H     -117.535      84.465     239.488
  H     -117.101      84.749     241.875
  H     -114.137      84.688     241.004
  H     -120.703      78.966     240.613
  H     -113.718      83.942     243.335
  H     -121.164      79.877     242.030
  H     -114.367      85.597     243.237
  P     -117.210      87.313     241.941
  C     -118.938      87.260     239.984
  O     -118.174      88.039     240.890
  O     -116.289      88.491     242.507
  O     -117.928      86.572     243.025
  H     -116.014      88.303     243.425
  H     -119.520      87.906     239.361
  H     -119.589      86.612     240.532
  H     -118.281      86.674     239.376

 6  7  8  9  10  11  12  13  14  15  16  26  30  31  32  33  35 0
 6-311+G(2d,p)
 ****
 37  38 0
 6-311+G(2d,p)
 ****
 1  2  3  4  5  17  18  19  20  21  22  23  24  25 0
 3-21G
 ****
 27  28  29  34  36  39  40  41  42  43  44  45  46 0
 3-21G
 ****


