%nproc=1
%NoSave
%Mem=1900MB
#P OB98/GEN NMR

erre ene a

0 1
  C      -92.402    -212.731    -102.690
  O      -91.645    -211.583    -103.033
  P      -90.995    -210.715    -101.854
  C      -92.336    -208.542    -102.338
  O      -91.066    -209.173    -102.290
  C      -92.245    -207.217    -103.100
  O      -91.406    -206.285    -102.351
  C      -91.640    -207.347    -104.506
  O      -92.285    -206.375    -105.344
  C      -90.196    -206.946    -104.280
  O      -89.529    -206.555    -105.472
  C      -90.384    -205.821    -103.255
  N      -89.151    -205.482    -102.549
  C      -88.165    -204.814    -103.269
  O      -88.269    -204.499    -104.454
  N      -86.999    -204.567    -102.592
  C      -86.696    -204.990    -101.332
  O      -85.590    -204.836    -100.826
  C      -87.774    -205.690    -100.620
  C      -88.935    -205.900    -101.249
  O      -89.438    -211.067    -101.958
  O      -91.543    -211.000    -100.497
  H      -88.640    -206.251    -105.223
  H      -89.192    -211.728    -101.284
  H      -86.277    -204.074    -103.096
  H      -87.573    -206.021     -99.609
  H      -89.739    -206.430    -100.756
  H      -90.778    -204.923    -103.750
  H      -89.646    -207.790    -103.849
  H      -91.741    -208.347    -104.936
  H      -93.248    -206.775    -103.156
  H      -92.678    -208.346    -101.320
  H      -93.063    -209.210    -102.811
  P      -92.443    -206.717    -106.907
  C      -91.123    -204.650    -107.818
  O      -92.359    -205.324    -107.692
  O      -93.997    -207.102    -106.970
  O      -91.535    -207.806    -107.378
  H      -94.555    -206.496    -106.456
  H      -90.288    -205.352    -107.903
  H      -90.968    -204.014    -106.944
  H      -91.150    -204.024    -108.713
  H      -92.766    -213.198    -103.581
  H      -93.229    -212.442    -102.076
  H      -91.783    -213.419    -102.154

 3  4  5  6  7  8  9  10  11  12  13  23  28  29  30  31  32 0
 6-311+G(2d,p)
 ****
 33  34 0
 6-311+G(2d,p)
 ****
 1  2  14  15  16  17  18  19  20  21  22  24  25  26 0
 3-21G
 ****
 27  35  36  37  38  39  40  41  42  43  44  45 0
 3-21G
 ****


