%nproc=1
%NoSave
%Mem=1900MB
#P OB98/GEN NMR

erre ene a

0 1
  C      -31.996      -1.422     -10.379
  O      -33.127      -0.574     -10.326
  H      -31.114      -0.846     -10.089
  H      -31.855      -1.797     -11.396
  H      -32.119      -2.256      -9.684
  P      -34.539      -1.242     -10.696
  C      -34.476      -0.100     -13.018
  O      -35.170      -0.251     -11.787
  C      -35.261       0.802     -13.966
  O      -34.447       1.187     -15.088
  C      -36.507       0.157     -14.559
  O      -37.587       0.207     -13.643
  C      -36.746       1.056     -15.763
  O      -37.395       2.271     -15.341
  C      -35.315       1.366     -16.239
  N      -32.094       1.105     -20.227
  C      -32.457       2.134     -19.431
  N      -33.349       2.141     -18.419
  C      -33.895       0.925     -18.257
  C      -33.624      -0.219     -18.991
  C      -32.668      -0.102     -20.013
  N      -32.293      -1.157     -20.816
  N      -34.378      -1.281     -18.539
  C      -35.052      -0.799     -17.515
  N      -34.822       0.540     -17.326
  O      -35.409      -1.597      -9.541
  O      -34.063      -2.480     -11.595
  H      -37.423       2.871     -16.109
  H      -33.314      -2.223     -12.160
  H      -31.962       3.080     -19.634
  H      -35.703      -1.378     -16.870
  H      -35.214       2.406     -16.569
  H      -37.395       0.591     -16.507
  H      -36.304      -0.860     -14.907
  H      -35.517       1.720     -13.421
  H      -34.311      -1.077     -13.484
  H      -31.734      -0.948     -21.628
  H      -32.811      -2.020     -20.736
  H      -33.502       0.345     -12.793
  P      -38.548      -1.060     -13.443
  C      -40.352       0.602     -14.211
  O      -40.045      -0.488     -13.350
  O      -38.164      -1.973     -12.331
  O      -38.532      -1.804     -14.856
  H      -38.539      -2.772     -14.731
  H      -41.370       0.898     -14.063
  H      -40.211       0.303     -15.229
  H      -39.706       1.425     -13.989

 6  7  8  9  10  11  12  13  14  15  25  28  32  33  34  35 0
 6-311+G(2d,p)
 ****
 36  39  40 0
 6-311+G(2d,p)
 ****
 1  2  3  4  5  16  17  18  19  20  21  22  23  24 0
 3-21G
 ****
 26  27  29  30  31  37  38  41  42  43  44  45  46  47 0
 3-21G
 ****
 48 0
 3-21G
 ****


