%nproc=1
%NoSave
%Mem=1900MB
#P OB98/GEN NMR

erre ene a

0 1
  C     -403.850    -239.120     256.366
  O     -403.889    -238.524     257.654
  H     -402.962    -238.772     255.851
  H     -404.739    -238.819     255.797
  H     -403.812    -240.213     256.453
  P     -405.028    -239.046     258.660
  C     -403.613    -240.976     259.739
  O     -404.695    -240.599     258.906
  C     -403.801    -242.416     260.233
  O     -405.069    -242.500     260.935
  C     -403.810    -243.461     259.118
  O     -403.162    -244.648     259.596
  C     -405.299    -243.739     258.896
  O     -405.509    -245.021     258.325
  C     -405.844    -243.555     260.322
  N     -407.280    -243.235     260.325
  C     -408.134    -244.168     260.883
  O     -407.681    -245.240     261.328
  N     -409.483    -243.924     260.893
  C     -409.936    -242.863     260.311
  N     -411.283    -242.687     260.330
  C     -409.080    -241.853     259.660
  C     -407.771    -242.091     259.720
  O     -406.318    -239.079     257.711
  O     -405.173    -238.219     259.891
  H     -405.131    -245.688     258.935
  H     -406.130    -239.419     256.819
  H     -409.503    -240.992     259.182
  H     -407.060    -241.401     259.271
  H     -405.700    -244.463     260.921
  H     -405.723    -242.992     258.228
  H     -403.326    -243.122     258.197
  H     -403.020    -242.624     260.974
  H     -411.850    -243.399     260.772
  H     -403.539    -240.306     260.602
  H     -411.758    -241.913     259.873
  H     -402.694    -240.896     259.156
  P     -401.687    -244.987     259.055
  C     -400.464    -246.104     261.033
  O     -400.655    -244.914     260.276
  O     -401.264    -244.283     257.822
  O     -401.775    -246.581     258.798
  H     -401.282    -246.777     257.976
  H     -399.755    -245.921     261.813
  H     -400.097    -246.879     260.393
  H     -401.396    -246.407     261.462

 6  7  8  9  10  11  12  13  14  15  16  26  30  31  32  33  35 0
 6-311+G(2d,p)
 ****
 37  38 0
 6-311+G(2d,p)
 ****
 1  2  3  4  5  17  18  19  20  21  22  23  24  25 0
 3-21G
 ****
 27  28  29  34  36  39  40  41  42  43  44  45  46 0
 3-21G
 ****


