%nproc=1
%NoSave
%Mem=1900MB
#P OB98/GEN NMR

erre ene a

0 1
  C      113.463    -191.704     -55.915
  O      114.649    -191.540     -56.691
  P      116.091    -191.196     -56.102
  C      117.662    -193.304     -56.041
  O      117.162    -192.184     -56.759
  C      118.135    -194.411     -56.999
  O      117.104    -194.626     -58.011
  C      119.424    -194.033     -57.742
  O      120.357    -195.105     -57.843
  C      118.906    -193.441     -59.043
  O      119.874    -193.416     -60.079
  C      117.661    -194.285     -59.303
  N      113.166    -194.584     -61.707
  C      113.893    -195.580     -61.086
  N      113.367    -196.823     -61.111
  N      115.041    -195.378     -60.496
  C      115.491    -194.106     -60.605
  C      114.871    -193.038     -61.214
  C      113.576    -193.263     -61.817
  O      112.880    -192.409     -62.367
  N      115.631    -191.897     -61.115
  C      116.717    -192.281     -60.470
  N      116.673    -193.614     -60.131
  O      116.165    -191.012     -54.622
  O      116.451    -189.776     -56.783
  H      120.111    -194.339     -60.293
  H      116.999    -189.289     -56.133
  H      112.275    -194.793     -62.126
  H      117.550    -191.636     -60.212
  H      117.897    -195.218     -59.819
  H      118.627    -192.397     -58.840
  H      112.551    -197.072     -61.650
  H      119.979    -193.263     -57.192
  H      114.001    -197.579     -60.852
  H      118.255    -195.340     -56.431
  H      116.827    -193.670     -55.434
  H      118.460    -193.003     -55.360
  P      121.655    -195.386     -56.955
  C      120.253    -195.859     -54.857
  O      121.245    -196.348     -55.742
  O      121.966    -194.000     -56.221
  O      122.852    -195.840     -57.727
  H      122.844    -193.671     -56.490
  H      120.261    -196.469     -53.950
  H      119.272    -195.932     -55.327
  H      120.459    -194.819     -54.586
  H      112.641    -191.929     -56.562
  H      113.258    -190.800     -55.381
  H      113.600    -192.506     -55.220

 3  4  5  6  7  8  9  10  11  12  23  26  30  31 0
 6-311+G(2d,p)
 ****
 33  35  36  37  38 0
 6-311+G(2d,p)
 ****
 1  2  13  14  15  16  17  18  19  20  21  22  24  25 0
 3-21G
 ****
 27  28  29  32  34  39  40  41  42  43  44  45  46  47  48  49 0
 3-21G
 ****


