%nproc=1
%NoSave
%Mem=1900MB
#P OB98/GEN NMR

erre ene a

0 1
  C     -305.519    -383.636    -260.818
  O     -305.086    -384.935    -261.170
  H     -305.824    -383.114    -261.729
  H     -304.695    -383.086    -260.358
  H     -306.366    -383.676    -260.132
  P     -304.886    -386.021    -260.007
  C     -307.264    -387.019    -260.180
  O     -306.333    -386.308    -259.374
  C     -307.586    -388.386    -259.563
  O     -308.348    -388.181    -258.348
  C     -308.455    -389.232    -260.500
  O     -308.254    -390.629    -260.300
  C     -309.867    -388.869    -260.068
  O     -310.830    -389.865    -260.411
  C     -309.684    -388.676    -258.565
  N     -314.382    -388.053    -256.687
  C     -313.853    -389.130    -257.372
  N     -314.690    -390.176    -257.586
  N     -312.629    -389.162    -257.830
  C     -311.937    -388.019    -257.613
  C     -312.361    -386.881    -256.962
  C     -313.709    -386.867    -256.430
  O     -314.232    -385.932    -255.830
  N     -311.375    -385.921    -256.944
  C     -310.361    -386.481    -257.580
  N     -310.648    -387.761    -257.981
  O     -304.154    -385.196    -258.842
  O     -304.104    -387.241    -260.393
  H     -311.709    -389.515    -260.169
  H     -303.680    -385.804    -258.247
  H     -315.323    -388.090    -256.330
  H     -309.405    -386.002    -257.760
  H     -309.778    -389.629    -258.038
  H     -310.157    -387.948    -260.583
  H     -315.681    -390.106    -257.421
  H     -308.295    -388.996    -261.549
  H     -314.424    -390.819    -258.340
  H     -306.653    -388.892    -259.276
  H     -306.803    -387.139    -261.163
  H     -308.175    -386.430    -260.315
  P     -307.543    -391.477    -261.464
  C     -305.112    -391.708    -260.433
  O     -305.969    -391.209    -261.439
  O     -308.029    -390.763    -262.805
  O     -307.876    -392.942    -261.453
  H     -308.580    -391.370    -263.335
  H     -304.108    -391.397    -260.633
  H     -305.159    -392.777    -260.423
  H     -305.420    -391.328    -259.481

 6  7  8  9  10  11  12  13  14  15  26  29  33  34 0
 6-311+G(2d,p)
 ****
 36  38  39  40  41 0
 6-311+G(2d,p)
 ****
 1  2  3  4  5  16  17  18  19  20  21  22  23  24  25 0
 3-21G
 ****
 27  28  30  31  32  35  37  42  43  44  45  46  47 0
 3-21G
 ****
 48  49 0
 3-21G
 ****


