%nproc=1
%NoSave
%Mem=1900MB
#P OB98/GEN NMR

erre ene a

0 1
  C      165.297      72.853     -82.685
  O      166.604      72.376     -82.937
  H      164.580      72.159     -83.131
  H      165.155      73.840     -83.136
  H      165.112      72.906     -81.608
  P      167.848      73.260     -82.452
  C      169.090      75.349     -83.347
  O      168.087      74.364     -83.590
  C      169.001      76.471     -84.382
  O      167.717      77.121     -84.305
  C      170.038      77.574     -84.193
  O      171.314      77.140     -84.625
  C      169.412      78.688     -85.017
  O      169.638      78.480     -86.418
  C      167.913      78.512     -84.674
  N      167.451      79.398     -83.609
  C      167.299      80.748     -83.956
  O      167.566      81.127     -85.096
  N      166.867      81.625     -82.992
  C      166.569      81.193     -81.806
  N      166.141      82.115     -80.895
  C      166.681      79.775     -81.410
  C      167.132      78.943     -82.346
  O      169.080      72.509     -82.052
  O      167.261      74.120     -81.232
  H      169.093      77.708     -86.669
  H      167.436      73.674     -80.384
  H      166.411      79.458     -80.412
  H      167.244      77.884     -82.142
  H      167.292      78.691     -85.563
  H      169.822      79.667     -84.768
  H      170.068      77.893     -83.143
  H      169.083      76.018     -85.378
  H      166.064      83.072     -81.221
  H      170.059      74.846     -83.419
  H      165.733      81.873     -80.007
  H      168.989      75.761     -82.336
  P      172.639      77.980     -84.302
  C      173.594      80.252     -85.043
  O      172.502      79.350     -85.132
  O      173.922      77.246     -84.511
  O      172.421      78.468     -82.794
  H      172.599      77.724     -82.162
  H      173.388      81.121     -85.633
  H      174.481      79.776     -85.406
  H      173.737      80.540     -84.022

 6  7  8  9  10  11  12  13  14  15  16  26  30  31  32  33  35 0
 6-311+G(2d,p)
 ****
 37  38 0
 6-311+G(2d,p)
 ****
 1  2  3  4  5  17  18  19  20  21  22  23  24  25 0
 3-21G
 ****
 27  28  29  34  36  39  40  41  42  43  44  45  46 0
 3-21G
 ****


