%nproc=1
%NoSave
%Mem=1900MB
#P OB98/GEN NMR

erre ene a

0 1
  C      341.491     956.272     720.148
  O      341.979     955.240     720.984
  H      342.314     956.645     719.536
  H      341.093     957.090     720.751
  H      340.705     955.882     719.483
  P      340.908     954.533     721.949
  C      340.588     952.130     722.896
  O      341.412     953.008     722.154
  C      341.273     950.769     723.010
  O      341.366     950.158     721.710
  C      342.706     950.837     723.516
  O      342.767     951.003     724.933
  C      343.248     949.501     723.038
  O      342.925     948.445     723.949
  C      342.539     949.302     721.705
  N      345.982     947.417     718.436
  C      345.252     946.837     719.399
  N      344.336     947.405     720.229
  C      344.208     948.716     719.950
  C      344.889     949.442     718.989
  C      345.819     948.756     718.197
  N      346.588     949.342     717.238
  N      344.498     950.774     719.036
  C      343.599     950.844     719.988
  N      343.390     949.626     720.573
  O      339.617     954.382     721.022
  O      340.611     955.271     723.212
  H      341.955     948.343     723.924
  H      338.981     955.103     721.219
  H      345.419     945.771     719.550
  H      343.091     951.750     720.303
  H      342.192     948.273     721.563
  H      344.345     949.545     722.952
  H      343.261     951.654     723.015
  H      340.670     950.115     723.662
  H      339.631     952.007     722.386
  H      340.413     952.564     723.891
  H      347.273     948.792     716.757
  H      346.545     950.343     717.129
  P      344.186     951.381     725.568
  C      344.971     952.565     727.771
  O      343.906     952.261     726.869
  O      344.815     952.436     724.530
  O      345.103     950.224     725.800
  H      345.794     952.317     724.482
  H      344.596     953.160     728.578
  H      345.734     953.107     727.252
  H      345.381     951.656     728.158

 6  7  8  9  10  11  12  13  14  15  25  28  32  33  34  35 0
 6-311+G(2d,p)
 ****
 36  37  40 0
 6-311+G(2d,p)
 ****
 1  2  3  4  5  16  17  18  19  20  21  22  23  24 0
 3-21G
 ****
 26  27  29  30  31  38  39 41  42  43  44  45  46  47  48 0
 3-21G
 ****


