%nproc=1
%NoSave
%Mem=1900MB
#P OB98/GEN NMR

erre ene a

0 1
  C     1495.567     -64.600     296.427
  O     1494.500     -64.566     297.355
  P     1493.619     -65.886     297.670
  C     1492.877     -67.794     296.123
  O     1493.134     -66.396     296.233
  C     1492.574     -68.160     294.666
  O     1493.822     -68.105     293.932
  C     1492.018     -69.552     294.431
  O     1490.618     -69.668     294.585
  C     1492.386     -69.763     292.969
  O     1491.442     -69.068     292.129
  C     1493.748     -69.124     292.869
  N     1496.370     -72.888     290.610
  C     1495.362     -72.111     290.184
  N     1494.701     -71.139     290.843
  C     1495.212     -70.971     292.080
  C     1496.248     -71.697     292.663
  C     1496.847     -72.692     291.863
  N     1497.890     -73.474     292.304
  N     1496.476     -71.244     293.947
  C     1495.623     -70.290     294.129
  N     1494.836     -70.059     293.030
  O     1492.553     -65.685     298.684
  O     1494.715     -66.982     298.102
  H     1490.613     -69.579     292.170
  H     1494.250     -67.726     298.546
  H     1495.027     -72.294     289.161
  H     1495.526     -69.687     295.040
  H     1493.904     -68.570     291.921
  H     1492.353     -70.819     292.652
  H     1492.543     -70.323     295.040
  H     1491.912     -67.391     294.248
  H     1491.992     -68.005     296.727
  H     1498.336     -74.097     291.638
  H     1498.336     -73.229     293.187
  H     1493.714     -68.376     296.509
  P     1489.988     -71.155     294.610
  C     1490.151     -73.059     292.817
  O     1490.063     -71.681     293.103
  O     1488.656     -71.259     295.257
  O     1491.126     -72.005     295.353
  H     1491.963     -72.094     294.855
  H     1490.006     -73.200     291.730
  H     1489.343     -73.587     293.327
  H     1491.107     -73.448     293.110
  H     1496.017     -63.631     296.365
  H     1495.194     -64.882     295.465
  H     1496.297     -65.312     296.749

 3  4  5  6  7  8  9  10  11  12  22  25  29  30  31  32 0
 6-311+G(2d,p)
 ****
 33  36  37 0
 6-311+G(2d,p)
 ****
 1  2  13  14  15  16  17  18  19  20  21  23  24  26 0
 3-21G
 ****
 27  28  34  35  38  39  40  41  42  43  44  45  46  47  48 0
 3-21G
 ****


