%nproc=1
%NoSave
%Mem=1900MB
#P OB98/GEN NMR

erre ene a

0 1
  C      351.613      15.337     -72.221
  O      350.867      14.717     -71.192
  H      351.255      15.006     -73.200
  H      351.479      16.421     -72.148
  H      352.675      15.102     -72.113
  P      350.898      13.113     -71.146
  C      352.726      11.410     -70.415
  O      352.429      12.730     -70.848
  C      354.109      11.011     -70.920
  O      354.163      11.133     -72.360
  C      355.235      11.890     -70.387
  O      355.659      11.503     -69.089
  C      356.314      11.625     -71.421
  O      356.916      10.341     -71.179
  C      355.495      11.593     -72.722
  N      357.730      14.846     -75.983
  C      358.060      13.598     -75.585
  N      357.401      12.790     -74.730
  C      356.288      13.386     -74.278
  C      355.816      14.650     -74.598
  C      356.597      15.399     -75.493
  N      356.280      16.684     -75.878
  N      354.646      14.920     -73.917
  C      354.408      13.832     -73.213
  N      355.388      12.888     -73.372
  O      350.710      12.682     -72.675
  O      349.912      12.467     -70.231
  H      357.327      10.057     -72.018
  H      350.491      11.733     -72.738
  H      358.978      13.196     -76.007
  H      353.551      13.682     -72.569
  H      355.902      10.892     -73.458
  H      357.115      12.367     -71.395
  H      354.964      12.953     -70.416
  H      354.276       9.958     -70.667
  H      351.975      10.724     -70.818
  H      356.975      17.193     -76.402
  H      355.523      17.158     -75.407
  H      352.698      11.373     -69.321
  P      356.316      12.635     -68.157
  C      355.268      14.621     -66.852
  O      355.216      13.795     -68.009
  O      357.418      13.291     -69.115
  O      356.904      12.129     -66.884
  H      358.186      13.602     -68.600
  H      354.479      15.342     -66.893
  H      356.211      15.126     -66.816
  H      355.154      14.016     -65.977

 6  7  8  9  10  11  12  13  14  15  25  28  32  33  34  35 0
 6-311+G(2d,p)
 ****
 36  39  40 0
 6-311+G(2d,p)
 ****
 1  2  3  4  5  16  17  18  19  20  21  22  23  24 0
 3-21G
 ****
 26  27  29  30  31  37  38  41  42  43  44  45  46  47 0
 3-21G
 ****
 48 0
 3-21G
 ****


