%nproc=1
%NoSave
%Mem=1900MB
#P OB98/GEN NMR

erre ene a

0 1
  C      140.264     -31.018    -218.939
  O      140.682     -31.572    -220.173
  P      139.705     -32.478    -221.059
  C      138.862     -34.905    -220.880
  O      139.420     -33.799    -220.186
  C      137.816     -35.630    -220.030
  O      136.720     -34.720    -219.731
  C      137.213     -36.881    -220.683
  O      136.944     -37.802    -219.620
  C      135.913     -36.351    -221.268
  O      134.973     -37.379    -221.544
  C      135.497     -35.344    -220.179
  N      134.530     -34.374    -220.676
  C      133.185     -34.757    -220.650
  O      132.872     -35.901    -220.296
  N      132.229     -33.869    -221.075
  C      132.601     -32.729    -221.583
  N      131.612     -31.884    -221.986
  C      134.012     -32.338    -221.746
  C      134.914     -33.192    -221.265
  O      140.167     -32.735    -222.455
  O      138.303     -31.709    -220.984
  H      134.128     -36.963    -221.820
  H      138.308     -30.923    -221.587
  H      134.274     -31.406    -222.226
  H      135.974     -32.989    -221.336
  H      135.059     -35.871    -219.316
  H      136.119     -35.827    -222.209
  H      137.858     -37.335    -221.439
  H      138.286     -35.898    -219.072
  H      130.656     -32.189    -221.838
  H      139.670     -35.605    -221.108
  H      131.789     -30.949    -222.319
  H      138.430     -34.573    -221.826
  P      136.962     -39.386    -219.867
  C      135.402     -41.124    -220.927
  O      135.641     -39.746    -220.701
  O      137.173     -40.219    -218.640
  O      138.138     -39.612    -220.934
  H      138.387     -40.557    -220.951
  H      134.361     -41.259    -221.241
  H      135.574     -41.705    -220.013
  H      136.068     -41.484    -221.718
  H      141.065     -30.451    -218.513
  H      139.989     -31.806    -218.269
  H      139.422     -30.379    -219.102

 3  4  5  6  7  8  9  10  11  12  13  23  27  28  29  30  32 0
 6-311+G(2d,p)
 ****
 34  35 0
 6-311+G(2d,p)
 ****
 1  2  14  15  16  17  18  19  20  21  22  24  25  26 0
 3-21G
 ****
 31  33  36  37  38  39  40  41  42  43  44  45  46 0
 3-21G
 ****


