%nproc=1
%NoSave
%Mem=1900MB
#P OB98/GEN NMR

erre ene a

0 1
  C      175.111     172.189    -318.339
  O      174.943     172.803    -317.077
  H      174.124     171.965    -318.753
  H      175.670     171.254    -318.240
  H      175.631     172.864    -319.025
  P      176.249     173.196    -316.239
  C      175.173     171.765    -314.378
  O      175.878     172.958    -314.697
  C      175.496     171.323    -312.953
  O      176.785     170.681    -312.904
  C      175.547     172.466    -311.938
  O      174.242     172.812    -311.511
  C      176.368     171.819    -310.836
  O      175.542     170.906    -310.087
  C      177.418     171.034    -311.645
  N      182.471     171.026    -311.174
  C      181.530     170.166    -310.641
  N      182.002     169.183    -309.845
  N      180.246     170.267    -310.857
  C      179.913     171.339    -311.615
  C      180.752     172.270    -312.185
  C      182.177     172.106    -311.992
  O      183.044     172.833    -312.468
  N      180.045     173.268    -312.808
  C      178.783     172.910    -312.660
  N      178.649     171.749    -311.934
  O      176.831     174.548    -316.521
  O      177.286     172.018    -316.550
  H      174.888     171.442    -309.603
  H      177.855     172.241    -317.309
  H      183.448     170.903    -310.966
  H      177.933     173.449    -313.058
  H      177.704     170.099    -311.147
  H      176.773     172.545    -310.127
  H      182.957     169.144    -309.521
  H      176.095     173.327    -312.332
  H      181.323     168.579    -309.397
  H      174.752     170.571    -312.658
  H      175.483     170.998    -315.095
  H      174.094     171.920    -314.477
  P      173.856     174.326    -311.131
  C      172.551     173.668    -308.997
  O      172.489     174.220    -310.300
  O      173.816     175.270    -312.283
  O      174.904     174.724    -309.993
  H      175.761     175.058    -310.359
  H      171.572     173.660    -308.566
  H      173.203     174.260    -308.390
  H      172.925     172.667    -309.051

 6  7  8  9  10  11  12  13  14  15  26  29  33  34 0
 6-311+G(2d,p)
 ****
 36  38  39  40  41 0
 6-311+G(2d,p)
 ****
 1  2  3  4  5  16  17  18  19  20  21  22  23  24  25 0
 3-21G
 ****
 27  28  30  31  32  35  37  42  43  44  45  46  47 0
 3-21G
 ****
 48  49 0
 3-21G
 ****


