%nproc=1
%NoSave
%Mem=1900MB
#P OB98/GEN NMR

erre ene a

0 1
  C      309.891     210.669    -218.572
  O      310.657     209.721    -219.318
  P      311.033     208.314    -218.656
  C      309.859     206.737    -220.338
  O      311.093     207.190    -219.799
  C      309.845     206.929    -221.856
  O      309.655     208.320    -222.212
  C      311.163     206.541    -222.514
  O      311.483     205.165    -222.532
  C      311.079     207.254    -223.853
  O      310.325     206.504    -224.803
  C      310.331     208.552    -223.468
  N      311.218     209.713    -223.386
  C      311.395     210.430    -224.564
  O      310.884     210.106    -225.634
  N      312.213     211.523    -224.480
  C      312.884     211.938    -223.367
  O      313.624     212.914    -223.354
  C      312.679     211.126    -222.158
  C      311.869     210.068    -222.222
  O      310.258     207.942    -217.439
  O      312.586     208.506    -218.284
  H      310.117     207.100    -225.546
  H      312.736     208.098    -217.409
  H      312.345     212.062    -225.323
  H      313.200     211.421    -221.258
  H      311.701     209.456    -221.339
  H      309.552     208.779    -224.205
  H      312.070     207.414    -224.286
  H      311.974     207.021    -221.952
  H      309.009     206.367    -222.272
  H      309.031     207.283    -219.880
  H      309.719     205.683    -220.070
  P      312.909     204.601    -222.999
  C      313.823     203.808    -220.705
  O      313.351     203.439    -221.982
  O      313.947     205.601    -223.387
  O      312.505     203.754    -224.302
  H      313.241     203.800    -224.942
  H      314.093     202.898    -220.159
  H      313.047     204.333    -220.144
  H      314.715     204.436    -220.792
  H      309.734     211.546    -219.165
  H      310.420     210.931    -217.680
  H      308.946     210.239    -218.313

 3  4  5  6  7  8  9  10  11  12  13  23  28  29  30  31  32 0
 6-311+G(2d,p)
 ****
 33  34 0
 6-311+G(2d,p)
 ****
 1  2  14  15  16  17  18  19  20  21  22  24  25  26  27 0
 3-21G
 ****
 35  36  37  38  39  40  41  42  43  44  45 0
 3-21G
 ****


