%nproc=1
%NoSave
%Mem=1900MB
#P OB98/GEN NMR

erre ene a

0 1
  C      980.616    -213.521    -627.139
  O      981.917    -213.281    -626.622
  H      979.938    -213.728    -626.310
  H      980.631    -214.386    -627.803
  H      980.246    -212.640    -627.678
  P      983.060    -212.775    -627.619
  C      983.711    -211.075    -625.788
  O      983.446    -211.283    -627.169
  C      984.636    -209.866    -625.605
  O      985.939    -210.168    -626.173
  C      984.137    -208.573    -626.270
  O      984.616    -207.466    -625.488
  C      984.845    -208.644    -627.610
  O      984.779    -207.453    -628.334
  C      986.233    -209.120    -627.122
  N      987.123    -209.597    -628.175
  C      987.889    -208.647    -628.854
  O      987.861    -207.448    -628.626
  N      988.718    -209.139    -629.839
  C      988.847    -210.454    -630.182
  O      989.628    -210.836    -631.041
  C      988.022    -211.402    -629.431
  C      987.199    -210.950    -628.480
  O      982.772    -212.937    -629.072
  O      984.347    -213.626    -627.173
  H      984.490    -214.353    -627.799
  H      985.162    -207.590    -629.221
  H      989.271    -208.468    -630.327
  H      988.095    -212.467    -629.685
  H      986.591    -211.622    -627.898
  H      986.723    -208.311    -626.570
  H      984.376    -209.405    -628.239
  H      983.046    -208.520    -626.338
  H      984.800    -209.714    -624.510
  H      984.204    -211.976    -625.385
  H      982.772    -210.914    -625.253
  P      983.742    -206.715    -624.380
  C      985.747    -206.572    -622.719
  O      984.410    -207.013    -622.923
  O      982.282    -207.026    -624.442
  O      984.014    -205.139    -624.606
  H      983.259    -204.644    -624.274
  H      986.060    -206.829    -621.729
  H      985.795    -205.510    -622.844
  H      986.391    -207.045    -623.431

 6  7  8  9  10  11  12  13  14  15  16  27  31  32  33  34  35 0
 6-311+G(2d,p)
 ****
 36  37 0
 6-311+G(2d,p)
 ****
 1  2  3  4  5  17  18  19  20  21  22  23  24  25 0
 3-21G
 ****
 26  28  29  30  38  39  40  41  42  43  44  45 0
 3-21G
 ****


