%nproc=1
%NoSave
%Mem=1900MB
#P OB98/GEN NMR

erre ene a

0 1
  C       46.631    -855.201    -465.040
  O       47.708    -854.328    -465.318
  H       45.811    -854.981    -465.725
  H       46.278    -855.062    -464.014
  H       46.940    -856.244    -465.186
  P       48.997    -854.375    -464.370
  C       51.013    -855.982    -464.159
  O       49.996    -855.464    -465.003
  C       52.178    -856.541    -464.985
  O       51.672    -857.592    -465.860
  C       52.853    -855.487    -465.887
  O       54.227    -855.870    -466.042
  C       52.100    -855.687    -467.195
  O       52.762    -855.062    -468.271
  C       51.988    -857.214    -467.217
  N       50.983    -857.680    -468.162
  C       51.444    -858.036    -469.429
  O       52.641    -857.934    -469.704
  N       50.541    -858.475    -470.366
  C       49.274    -858.491    -470.082
  N       48.430    -858.914    -471.056
  C       48.740    -858.066    -468.770
  C       49.642    -857.687    -467.862
  O       48.722    -854.545    -462.911
  O       49.744    -852.991    -464.667
  H       52.216    -855.093    -469.086
  H       49.600    -852.373    -463.922
  H       47.676    -858.078    -468.584
  H       49.339    -857.358    -466.873
  H       52.954    -857.674    -467.475
  H       51.104    -855.231    -467.136
  H       52.782    -854.471    -465.491
  H       52.907    -857.001    -464.313
  H       48.843    -859.189    -471.944
  H       50.567    -856.781    -463.558
  H       47.430    -858.950    -470.955
  H       51.381    -855.199    -463.488
  P       55.410    -855.173    -465.217
  C       55.004    -855.941    -462.781
  O       55.798    -856.087    -463.955
  O       55.157    -853.738    -464.867
  O       56.706    -855.294    -466.160
  H       57.286    -854.527    -466.004
  H       55.366    -856.602    -462.021
  H       53.986    -856.181    -463.007
  H       55.064    -854.931    -462.433

 6  7  8  9  10  11  12  13  14  15  16  26  30  31  32  33  35 0
 6-311+G(2d,p)
 ****
 37  38 0
 6-311+G(2d,p)
 ****
 1  2  3  4  5  17  18  19  20  21  22  23  24  25 0
 3-21G
 ****
 27  28  29  34  36  39  40  41  42  43  44  45  46 0
 3-21G
 ****


