%nproc=1
%NoSave
%Mem=1900MB
#P OB98/GEN NMR

erre ene a

0 1
  C       80.127     -34.236    -233.705
  O       79.591     -32.954    -233.952
  P       79.462     -31.862    -232.787
  C       76.886     -31.941    -232.731
  O       78.089     -32.180    -232.012
  C       75.769     -31.509    -231.776
  O       75.580     -32.553    -230.773
  C       76.088     -30.196    -231.033
  O       75.076     -29.192    -231.131
  C       76.400     -30.675    -229.624
  O       76.275     -29.670    -228.633
  C       75.474     -31.890    -229.500
  N       75.842     -32.760    -228.384
  C       75.435     -32.368    -227.111
  O       74.785     -31.358    -226.868
  N       75.854     -33.159    -226.079
  C       76.717     -34.213    -226.174
  O       77.128     -34.816    -225.197
  C       77.146     -34.556    -227.538
  C       76.680     -33.841    -228.565
  O       79.609     -30.446    -233.220
  O       80.562     -32.340    -231.723
  H       76.568     -30.052    -227.783
  H       80.426     -33.237    -231.368
  H       75.566     -32.888    -225.149
  H       77.840     -35.378    -227.645
  H       76.980     -34.073    -229.584
  H       74.434     -31.589    -229.371
  H       77.445     -31.010    -229.606
  H       76.980     -29.708    -231.456
  H       74.847     -31.414    -232.362
  H       76.588     -32.865    -233.238
  H       77.060     -31.183    -233.506
  P       75.279     -27.732    -231.746
  C       75.404     -26.724    -229.350
  O       75.986     -26.820    -230.636
  O       74.077     -27.131    -232.380
  O       76.443     -27.941    -232.831
  H       76.344     -27.294    -233.548
  H       75.666     -25.749    -228.920
  H       75.812     -27.512    -228.708
  H       74.317     -26.811    -229.392
  H       80.123     -34.805    -234.611
  H       79.533     -34.735    -232.968
  H       81.131     -34.140    -233.349

 3  4  5  6  7  8  9  10  11  12  13  23  28  29  30  31  32 0
 6-311+G(2d,p)
 ****
 33  34 0
 6-311+G(2d,p)
 ****
 1  2  14  15  16  17  18  19  20  21  22  24  25  26  27 0
 3-21G
 ****
 35  36  37  38  39  40  41  42  43  44  45 0
 3-21G
 ****


