%nproc=1
%NoSave
%Mem=1900MB
#P OB98/GEN NMR

erre ene a

0 1
  C       37.724    -202.382     135.268
  O       37.754    -201.731     136.531
  P       38.506    -200.312     136.619
  C       40.588    -201.212     137.890
  O       40.071    -200.658     136.682
  C       42.091    -201.441     137.772
  O       42.362    -202.491     136.825
  C       42.880    -200.235     137.285
  O       43.153    -199.313     138.327
  C       44.163    -200.898     136.814
  O       45.005    -201.190     137.944
  C       43.641    -202.202     136.195
  N       45.636    -203.465     131.662
  C       46.091    -203.629     132.921
  N       45.505    -203.256     134.076
  C       44.346    -202.619     133.840
  C       43.773    -202.347     132.606
  C       44.463    -202.812     131.476
  N       43.986    -202.671     130.191
  N       42.582    -201.672     132.764
  C       42.429    -201.550     134.064
  N       43.465    -202.115     134.759
  O       38.177    -199.821     138.107
  O       38.092    -199.314     135.592
  H       44.461    -201.686     138.584
  H       38.257    -198.851     138.161
  H       47.048    -204.135     133.013
  H       41.588    -201.071     134.547
  H       44.300    -203.054     136.395
  H       44.745    -200.270     136.134
  H       42.385    -199.753     136.433
  H       42.459    -201.768     138.754
  H       40.094    -202.169     138.082
  H       44.441    -203.188     129.459
  H       43.023    -202.365     130.074
  H       40.368    -200.529     138.718
  P       43.522    -197.811     137.890
  C       46.087    -198.040     138.236
  O       45.017    -197.892     137.322
  O       43.677    -197.057     139.291
  O       42.511    -197.169     137.005
  H       43.507    -196.102     139.183
  H       46.969    -198.384     137.692
  H       45.848    -198.773     139.011
  H       46.315    -197.074     138.699
  H       37.196    -203.308     135.357
  H       38.725    -202.572     134.941
  H       37.229    -201.756     134.556

 3  4  5  6  7  8  9  10  11  12  22  25  29  30  31  32 0
 6-311+G(2d,p)
 ****
 33  36  37 0
 6-311+G(2d,p)
 ****
 1  2  13  14  15  16  17  18  19  20  21  23  24  26 0
 3-21G
 ****
 27  28  34  35  38  39  40  41  42  43  44  45  46  47  48 0
 3-21G
 ****


