%nproc=1
%NoSave
%Mem=1900MB
#P OB98/GEN NMR

erre ene a

0 1
  C      182.596     399.317     740.676
  O      183.518     400.306     740.268
  H      182.979     398.337     740.376
  H      181.631     399.480     740.185
  H      182.467     399.329     741.761
  P      183.247     401.800     740.791
  C      184.590     402.110     742.994
  O      184.570     402.250     741.580
  C      185.754     401.219     743.420
  O      185.453     399.833     743.145
  C      187.067     401.518     742.707
  O      187.757     402.607     743.307
  C      187.807     400.208     742.924
  O      188.316     400.157     744.274
  C      186.690     399.179     742.737
  N      187.551     395.300     739.588
  C      187.854     395.438     740.930
  N      188.491     394.401     741.516
  N      187.570     396.505     741.637
  C      186.946     397.470     740.921
  C      186.589     397.445     739.589
  C      186.900     396.264     738.823
  O      186.638     396.079     737.643
  N      185.965     398.602     739.221
  C      185.955     399.337     740.316
  N      186.548     398.698     741.377
  O      182.173     401.594     741.966
  O      182.750     402.759     739.765
  H      187.568     400.346     744.866
  H      181.555     402.348     741.960
  H      187.803     394.466     739.092
  H      185.534     400.329     740.396
  H      186.817     398.298     743.382
  H      188.662     400.091     742.258
  H      188.780     393.574     741.017
  H      186.916     401.675     741.630
  H      188.691     394.465     742.506
  H      185.870     401.318     744.505
  H      183.649     401.658     743.323
  H      184.687     403.100     743.447
  P      188.890     403.345     742.432
  C      187.629     405.614     742.359
  O      188.774     404.900     742.810
  O      188.292     403.279     740.946
  O      190.250     402.743     742.519
  H      189.016     403.356     740.295
  H      187.691     406.631     742.685
  H      186.746     405.164     742.762
  H      187.588     405.584     741.290

 6  7  8  9  10  11  12  13  14  15  26  29  33  34 0
 6-311+G(2d,p)
 ****
 36  38  39  40  41 0
 6-311+G(2d,p)
 ****
 1  2  3  4  5  16  17  18  19  20  21  22  23  24  25 0
 3-21G
 ****
 27  28  30  31  32  35  37  42  43  44  45  46  47 0
 3-21G
 ****
 48  49 0
 3-21G
 ****


