%nproc=1
%NoSave
%Mem=1900MB
#P OB98/GEN NMR

erre ene a

0 1
  C     -289.409     158.921     696.115
  O     -289.673     157.526     695.967
  P     -290.623     156.885     694.850
  C     -288.804     155.167     694.051
  O     -289.693     156.228     693.721
  C     -289.335     153.776     693.597
  O     -289.431     153.767     692.145
  C     -288.338     152.687     693.975
  O     -288.359     152.139     695.282
  C     -288.461     151.655     692.864
  O     -289.381     150.611     693.184
  C     -288.975     152.482     691.674
  N     -287.174     150.933     687.134
  C     -288.203     150.415     687.890
  N     -288.805     149.300     687.412
  N     -288.603     150.916     689.034
  C     -287.855     151.970     689.446
  C     -286.804     152.574     688.808
  C     -286.412     152.034     687.517
  O     -285.503     152.472     686.797
  N     -286.280     153.607     689.539
  C     -287.002     153.613     690.636
  N     -287.980     152.639     690.622
  O     -291.740     157.756     694.381
  O     -291.264     155.612     695.589
  H     -289.016     150.097     693.923
  H     -292.176     155.507     695.222
  H     -286.922     150.521     686.265
  H     -286.866     154.295     691.464
  H     -289.843     151.991     691.205
  H     -287.495     151.174     692.675
  H     -288.474     148.800     686.598
  H     -287.327     153.116     693.864
  H     -289.414     148.796     688.053
  H     -290.344     153.614     693.983
  H     -288.672     155.188     695.133
  H     -287.815     155.352     693.609
  P     -287.218     152.324     696.412
  C     -288.355     154.073     697.896
  O     -287.321     153.824     696.958
  O     -285.857     152.340     695.576
  O     -287.199     151.261     697.457
  H     -285.090     152.182     696.183
  H     -288.518     155.160     697.956
  H     -288.063     153.705     698.879
  H     -289.286     153.600     697.585
  H     -288.743     159.072     696.938
  H     -290.326     159.440     696.299
  H     -288.960     159.296     695.219

 3  4  5  6  7  8  9  10  11  12  23  26  30  31 0
 6-311+G(2d,p)
 ****
 33  35  36  37  38 0
 6-311+G(2d,p)
 ****
 1  2  13  14  15  16  17  18  19  20  21  22  24  25 0
 3-21G
 ****
 27  28  29  32  34  39  40  41  42  43  44  45  46  47  48  49 0
 3-21G
 ****


