%nproc=1
%NoSave
%Mem=1900MB
#P OB98/GEN NMR

erre ene a

0 1
  C     -271.082    -826.510    -888.770
  O     -271.678    -826.644    -890.050
  H     -271.798    -826.016    -888.100
  H     -270.182    -825.896    -888.830
  H     -270.837    -827.507    -888.370
  P     -270.795    -827.387    -891.170
  C     -272.430    -829.428    -891.010
  O     -271.078    -828.956    -890.990
  C     -272.574    -830.635    -891.920
  O     -272.517    -830.174    -893.320
  C     -271.456    -831.667    -891.760
  O     -271.987    -832.985    -892.080
  C     -270.463    -831.260    -892.850
  O     -269.557    -832.280    -893.110
  C     -271.445    -830.915    -893.970
  N     -269.995    -830.940    -898.850
  C     -270.658    -831.849    -898.100
  N     -271.042    -831.755    -896.820
  C     -270.642    -830.560    -896.280
  C     -269.948    -829.558    -896.910
  C     -269.601    -829.775    -898.280
  N     -268.916    -828.853    -899.030
  N     -269.731    -828.485    -896.080
  C     -270.268    -828.888    -894.910
  N     -270.833    -830.128    -895.020
  O     -269.293    -827.217    -890.630
  O     -270.939    -826.854    -892.570
  H     -269.981    -833.027    -893.590
  H     -268.903    -826.401    -891.020
  H     -270.955    -832.744    -898.640
  H     -270.285    -828.315    -893.990
  H     -271.894    -831.807    -894.440
  H     -269.883    -830.365    -892.530
  H     -271.008    -831.687    -890.740
  H     -273.566    -831.104    -891.770
  H     -273.094    -828.599    -891.350
  H     -272.726    -829.701    -889.970
  H     -268.698    -829.102    -900.000
  H     -268.590    -827.973    -898.610
  P     -271.770    -834.183    -891.050
  C     -274.278    -834.855    -890.750
  O     -273.084    -834.396    -890.130
  O     -270.745    -833.515    -889.980
  O     -271.187    -835.447    -891.640
  H     -270.004    -834.148    -889.780
  H     -275.050    -834.945    -890.015
  H     -274.102    -835.809    -891.200
  H     -274.581    -834.156    -891.502

 6  7  8  9  10  11  12  13  14  15  25  28  32  33  34  35 0
 6-311+G(2d,p)
 ****
 36  37  40 0
 6-311+G(2d,p)
 ****
 1  2  3  4  5  16  17  18  19  20  21  22  23  24 0
 3-21G
 ****
 26  27  29  30  31  38  39 41  42  43  44  45  46  47  48 0
 3-21G
 ****


