%nproc=1
%NoSave
%Mem=1900MB
#P OB98/GEN NMR

erre ene a

0 1
  C      510.189     655.746    -891.220
  O      508.868     656.259    -891.050
  P      508.243     657.012    -892.340
  C      506.221     655.360    -892.550
  O      507.390     655.925    -893.160
  C      505.049     655.315    -893.510
  O      504.564     656.675    -893.810
  C      505.365     654.634    -894.850
  O      504.182     653.952    -895.260
  C      505.628     655.828    -895.730
  O      505.584     655.508    -897.140
  C      504.533     656.774    -895.240
  N      504.243     659.942    -899.220
  C      503.980     658.664    -899.110
  N      504.086     657.876    -898.010
  C      504.514     658.597    -896.950
  C      504.815     659.941    -896.920
  C      504.680     660.674    -898.130
  N      504.961     661.998    -898.260
  N      505.242     660.317    -895.640
  C      505.275     659.222    -894.960
  N      504.744     658.171    -895.660
  O      509.517     657.261    -893.250
  O      507.535     658.241    -891.990
  H      505.957     656.225    -897.640
  H      509.838     658.168    -893.140
  H      503.644     658.165    -900.000
  H      505.621     659.079    -893.940
  H      503.535     656.503    -895.610
  H      506.618     656.216    -895.560
  H      506.232     653.909    -894.810
  H      504.209     654.790    -892.990
  H      505.961     655.956    -891.660
  H      504.819     662.436    -899.150
  H      505.294     662.539    -897.470
  H      506.482     654.375    -892.150
  P      503.998     652.430    -894.810
  C      501.768     653.178    -893.790
  O      502.975     652.467    -893.560
  O      505.413     652.121    -894.050
  O      503.699     651.428    -895.930
  H      505.592     652.829    -893.440
  H      501.120     653.063    -892.900
  H      501.219     652.724    -894.660
  H      501.982     654.245    -893.930
  H      510.506     655.271    -890.315
  H      510.856     656.549    -891.454
  H      510.195     655.033    -892.018

 3  4  5  6  7  8  9  10  11  12  22  25  29  30  31  32 0
 6-311+G(2d,p)
 ****
 33  36  37 0
 6-311+G(2d,p)
 ****
 1  2  13  14  15  16  17  18  19  20  21  23  24  26 0
 3-21G
 ****
 27  28  34  35  38  39  40  41  42  43  44  45  46  47  48 0
 3-21G
 ****


