%nproc=1
%NoSave
%Mem=1900MB
#P OB98/GEN NMR

erre ene a

0 1
  C     -217.053    -127.144     364.092
  O     -215.797    -126.840     363.508
  P     -214.474    -127.650     363.920
  C     -213.229    -128.048     366.150
  O     -214.296    -127.381     365.489
  C     -213.124    -127.558     367.591
  O     -214.366    -127.800     368.277
  C     -212.050    -128.256     368.417
  O     -210.757    -127.774     368.087
  C     -212.526    -127.943     369.831
  O     -212.147    -126.609     370.203
  C     -214.060    -128.026     369.674
  N     -214.611    -129.294     370.135
  C     -214.200    -129.729     371.398
  O     -213.426    -129.060     372.080
  N     -214.712    -130.908     371.885
  C     -215.536    -131.603     371.167
  N     -216.062    -132.725     371.729
  C     -215.951    -131.211     369.808
  C     -215.458    -130.058     369.362
  O     -213.270    -127.345     363.096
  O     -214.912    -129.184     363.881
  H     -212.506    -126.456     371.100
  H     -214.801    -129.605     362.992
  H     -216.631    -131.832     369.241
  H     -215.731    -129.689     368.381
  H     -214.540    -127.211     370.227
  H     -212.129    -128.628     370.587
  H     -212.081    -129.340     368.249
  H     -212.947    -126.474     367.573
  H     -215.892    -132.862     372.717
  H     -212.298    -127.821     365.622
  H     -216.905    -133.154     371.363
  H     -213.401    -129.128     366.112
  P     -209.518    -128.771     368.299
  C     -209.099    -130.509     370.176
  O     -209.573    -129.216     369.842
  O     -208.249    -127.800     368.208
  O     -209.451    -129.887     367.310
  H     -207.830    -127.874     367.330
  H     -208.985    -130.563     371.262
  H     -208.130    -130.699     369.711
  H     -209.824    -131.264     369.862
  H     -217.801    -126.496     363.686
  H     -216.997    -127.005     365.151
  H     -217.309    -128.161     363.879

 3  4  5  6  7  8  9  10  11  12  13  23  27  28  29  30  32 0
 6-311+G(2d,p)
 ****
 34  35 0
 6-311+G(2d,p)
 ****
 1  2  14  15  16  17  18  19  20  21  22  24  25  26 0
 3-21G
 ****
 31  33  36  37  38  39  40  41  42  43  44  45  46 0
 3-21G
 ****


