%nproc=1
%NoSave
%Mem=1900MB
#P OB98/GEN NMR

erre ene a

0 1
  C     -248.883      21.457    -241.712
  O     -250.151      22.054    -241.519
  H     -248.983      20.648    -242.444
  H     -248.519      21.037    -240.773
  H     -248.171      22.194    -242.095
  P     -250.225      23.268    -240.471
  C     -251.908      24.569    -241.959
  O     -251.662      23.962    -240.696
  C     -253.238      25.329    -241.929
  O     -254.323      24.370    -241.752
  C     -253.344      26.356    -240.795
  O     -254.050      27.503    -241.276
  C     -254.202      25.645    -239.763
  O     -254.857      26.558    -238.887
  C     -255.139      24.858    -240.674
  N     -258.376      23.785    -236.973
  C     -257.960      25.002    -237.473
  N     -258.487      26.111    -236.905
  N     -257.103      25.123    -238.454
  C     -256.683      23.939    -238.948
  C     -257.006      22.666    -238.529
  C     -257.940      22.545    -237.430
  O     -258.326      21.500    -236.926
  N     -256.335      21.718    -239.265
  C     -255.608      22.415    -240.122
  N     -255.788      23.763    -239.971
  O     -249.199      24.343    -241.070
  O     -249.912      22.918    -239.056
  H     -255.499      26.053    -238.354
  H     -248.797      24.873    -240.356
  H     -259.031      23.745    -236.210
  H     -254.942      21.992    -240.865
  H     -255.938      25.483    -241.095
  H     -253.581      24.971    -239.159
  H     -259.178      26.095    -236.167
  H     -252.377      26.667    -240.393
  H     -258.203      27.017    -237.265
  H     -253.390      25.800    -242.905
  H     -251.950      23.788    -242.727
  H     -251.094      25.260    -242.190
  P     -253.197      28.651    -242.000
  C     -254.922      29.208    -243.862
  O     -254.210      29.669    -242.727
  O     -252.517      27.874    -243.222
  O     -252.170      29.291    -241.121
  H     -251.564      27.764    -243.057
  H     -255.550      29.992    -244.232
  H     -255.525      28.367    -243.588
  H     -254.229      28.917    -244.624

 6  7  8  9  10  11  12  13  14  15  26  29  33  34 0
 6-311+G(2d,p)
 ****
 36  38  39  40  41 0
 6-311+G(2d,p)
 ****
 1  2  3  4  5  16  17  18  19  20  21  22  23  24  25 0
 3-21G
 ****
 27  28  30  31  32  35  37  42  43  44  45  46  47 0
 3-21G
 ****
 48  49 0
 3-21G
 ****


