%nproc=1
%NoSave
%Mem=1900MB
#P OB98/GEN NMR

erre ene a

0 1
  C     -161.127     118.764    -330.857
  O     -160.560     117.716    -331.617
  P     -161.487     116.570    -332.247
  C     -162.011     115.479    -329.969
  O     -161.373     115.327    -331.234
  C     -161.994     114.165    -329.189
  O     -162.782     113.166    -329.866
  C     -160.607     113.558    -329.025
  O     -159.882     114.239    -328.017
  C     -160.957     112.114    -328.689
  O     -161.272     111.964    -327.296
  C     -162.211     111.876    -329.559
  N     -161.914     111.115    -330.765
  C     -161.569     109.772    -330.573
  O     -161.498     109.303    -329.436
  N     -161.265     109.007    -331.673
  C     -161.281     109.542    -332.853
  N     -160.960     108.734    -333.901
  C     -161.607     110.961    -333.096
  C     -161.909     111.682    -332.018
  O     -161.226     116.254    -333.681
  O     -162.970     117.114    -331.976
  H     -161.402     111.005    -327.148
  H     -163.197     117.857    -332.587
  H     -161.596     111.364    -334.097
  H     -162.157     112.733    -332.105
  H     -162.974     111.327    -328.990
  H     -160.132     111.430    -328.907
  H     -160.070     113.593    -329.979
  H     -162.447     114.348    -328.205
  H     -160.712     107.777    -333.689
  H     -163.046     115.785    -330.138
  H     -160.905     109.056    -334.853
  H     -161.506     116.272    -329.404
  P     -158.465     114.897    -328.360
  C     -157.013     112.785    -328.373
  O     -157.325     113.987    -327.697
  O     -158.355     116.359    -328.082
  O     -158.291     114.605    -329.928
  H     -157.959     115.415    -330.366
  H     -156.033     112.437    -328.031
  H     -156.979     112.934    -329.453
  H     -157.762     112.024    -328.131
  H     -160.352     119.424    -330.526
  H     -161.634     118.355    -330.008
  H     -161.823     119.307    -331.462

 3  4  5  6  7  8  9  10  11  12  13  23  27  28  29  30  32 0
 6-311+G(2d,p)
 ****
 34  35 0
 6-311+G(2d,p)
 ****
 1  2  14  15  16  17  18  19  20  21  22  24  25  26 0
 3-21G
 ****
 31  33  36  37  38  39  40  41  42  43  44  45  46 0
 3-21G
 ****


