%nproc=1
%NoSave
%Mem=1900MB
#P OB98/GEN NMR

erre ene a

0 1
  C      201.782    -245.899     219.277
  O      200.852    -245.076     218.571
  P      199.797    -245.752     217.577
  C      197.923    -244.422     218.764
  O      198.469    -244.856     217.525
  C      197.075    -243.165     218.554
  O      197.902    -242.005     218.293
  C      196.157    -243.265     217.341
  O      195.078    -244.170     217.432
  C      195.825    -241.808     217.066
  O      194.761    -241.346     217.897
  C      197.152    -241.109     217.444
  N      197.932    -240.708     216.274
  C      197.926    -239.350     215.972
  O      197.277    -238.519     216.604
  N      198.669    -238.978     214.884
  C      199.371    -239.815     214.068
  O      200.000    -239.431     213.091
  C      199.320    -241.242     214.424
  C      198.615    -241.619     215.492
  O      199.572    -247.214     217.769
  O      200.449    -245.477     216.133
  H      195.101    -241.300     218.810
  H      200.329    -246.282     215.594
  H      198.682    -237.997     214.653
  H      199.862    -241.937     213.795
  H      198.565    -242.664     215.773
  H      196.953    -240.208     218.037
  H      195.512    -241.656     216.030
  H      196.762    -243.615     216.491
  H      196.510    -242.966     219.466
  H      198.730    -244.221     219.473
  H      197.328    -245.234     219.196
  P      195.204    -245.728     217.075
  C      193.186    -246.822     218.282
  O      193.732    -246.365     217.064
  O      196.279    -246.503     217.756
  O      195.541    -245.663     215.504
  H      196.125    -246.413     215.284
  H      192.194    -247.236     218.084
  H      193.086    -245.997     218.991
  H      193.813    -247.608     218.708
  H      202.407    -245.285     219.891
  H      202.387    -246.435     218.576
  H      201.249    -246.593     219.892

 3  4  5  6  7  8  9  10  11  12  13  23  28  29  30  31  32 0
 6-311+G(2d,p)
 ****
 33  34 0
 6-311+G(2d,p)
 ****
 1  2  14  15  16  17  18  19  20  21  22  24  25  26  27 0
 3-21G
 ****
 35  36  37  38  39  40  41  42  43  44  45 0
 3-21G
 ****


