%nproc=1
%NoSave
%Mem=1900MB
#P OB98/GEN NMR

erre ene a

0 1
  C      -72.580     374.367     -58.803
  O      -72.501     374.175     -60.212
  P      -71.221     373.420     -60.814
  C      -71.296     371.951     -63.013
  O      -71.405     373.209     -62.385
  C      -72.007     371.999     -64.381
  O      -73.403     372.331     -64.204
  C      -71.414     373.039     -65.326
  O      -70.321     372.526     -66.062
  C      -72.614     373.392     -66.190
  O      -72.837     372.372     -67.175
  C      -73.754     373.391     -65.142
  N      -73.994     374.631     -64.373
  C      -75.200     375.313     -64.523
  O      -76.107     374.961     -65.269
  N      -75.350     376.445     -63.759
  C      -74.523     376.863     -62.761
  O      -74.733     377.847     -62.065
  C      -73.334     376.020     -62.541
  C      -73.124     374.974     -63.345
  O      -71.330     371.947     -60.211
  O      -69.909     374.071     -60.481
  H      -73.507     372.711     -67.799
  H      -70.577     371.765     -59.617
  H      -76.188     376.990     -63.909
  H      -72.673     376.291     -61.727
  H      -72.251     374.347     -63.189
  H      -74.701     373.117     -65.604
  H      -72.443     374.318     -66.740
  H      -71.123     373.941     -64.770
  H      -71.945     371.003     -64.833
  H      -71.739     371.167     -62.392
  H      -70.240     371.695     -63.140
  P      -68.900     373.265     -65.996
  C      -66.463     372.474     -66.037
  O      -67.804     372.120     -66.287
  O      -68.650     374.102     -64.787
  O      -68.858     374.133     -67.343
  H      -69.144     375.059     -67.173
  H      -65.842     371.568     -66.121
  H      -66.348     372.884     -65.028
  H      -66.122     373.204     -66.774
  H      -73.487     374.882     -58.564
  H      -71.743     374.947     -58.475
  H      -72.570     373.416     -58.312

 3  4  5  6  7  8  9  10  11  12  13  23  28  29  30  31  32 0
 6-311+G(2d,p)
 ****
 33  34 0
 6-311+G(2d,p)
 ****
 1  2  14  15  16  17  18  19  20  21  22  24  25  26  27 0
 3-21G
 ****
 35  36  37  38  39  40  41  42  43  44  45 0
 3-21G
 ****


