%nproc=1
%NoSave
%Mem=1900MB
#P OB98/GEN NMR

erre ene a

0 1
  C      139.247      58.679    -206.997
  O      140.444      58.874    -207.714
  P      140.410      59.593    -209.148
  C      140.634      58.107    -211.232
  O      139.770      58.562    -210.194
  C      141.333      56.816    -210.815
  O      140.393      55.905    -210.207
  C      141.961      56.045    -211.968
  O      143.171      56.654    -212.381
  C      142.124      54.658    -211.353
  O      143.309      54.603    -210.539
  C      140.867      54.565    -210.472
  N      139.391      49.835    -211.718
  C      140.568      50.320    -211.262
  N      140.897      51.607    -210.995
  C      139.869      52.421    -211.253
  C      138.620      52.075    -211.761
  C      138.388      50.707    -211.981
  N      137.173      50.196    -212.383
  N      137.838      53.209    -211.939
  C      138.600      54.212    -211.553
  N      139.809      53.778    -211.079
  O      141.691      60.226    -209.581
  O      139.260      60.700    -208.988
  H      144.064      54.821    -211.111
  H      139.644      61.591    -209.132
  H      141.346      49.586    -211.083
  H      138.318      55.256    -211.583
  H      141.087      54.111    -209.499
  H      142.202      53.871    -212.101
  H      141.255      55.991    -212.811
  H      142.090      57.064    -210.060
  H      141.378      58.887    -211.428
  H      137.074      49.189    -212.359
  H      136.341      50.775    -212.283
  H      140.050      57.943    -212.147
  P      143.697      56.451    -213.884
  C      145.348      54.563    -214.392
  O      144.013      54.891    -214.065
  O      144.777      57.388    -214.320
  O      142.375      56.655    -214.768
  H      142.614      57.052    -215.627
  H      145.524      54.757    -215.462
  H      145.506      53.496    -214.195
  H      146.055      55.142    -213.803
  H      139.462      58.188    -206.071
  H      138.580      58.074    -207.575
  H      138.790      59.627    -206.801

 3  4  5  6  7  8  9  10  11  12  22  25  29  30  31  32 0
 6-311+G(2d,p)
 ****
 33  36  37 0
 6-311+G(2d,p)
 ****
 1  2  13  14  15  16  17  18  19  20  21  23  24  26 0
 3-21G
 ****
 27  28  34  35  38  39  40  41  42  43  44  45  46  47  48 0
 3-21G
 ****


