%nproc=1
%NoSave
%Mem=1900MB
#P OB98/GEN NMR

erre ene a

0 1
  C      747.322     280.961     571.959
  O      746.815     281.863     572.921
  H      746.517     280.676     571.277
  H      747.697     280.060     572.457
  H      748.128     281.428     571.386
  P      747.891     282.572     573.873
  C      748.792     282.080     576.287
  O      748.173     281.581     575.112
  C      748.190     281.397     577.518
  O      746.803     281.745     577.673
  C      748.180     279.874     577.451
  O      749.460     279.305     577.609
  C      747.227     279.543     578.596
  O      747.903     279.523     579.853
  C      746.232     280.726     578.535
  N      744.911     280.306     578.075
  C      744.096     279.709     579.067
  O      744.519     279.602     580.215
  N      742.871     279.229     578.696
  C      742.502     279.306     577.445
  N      741.279     278.776     577.142
  C      743.320     279.923     576.390
  C      744.505     280.402     576.774
  O      747.035     283.750     574.538
  O      749.129     283.034     573.179
  H      747.207     279.455     580.538
  H      746.189     283.463     574.900
  H      742.951     279.969     575.378
  H      745.176     280.858     576.049
  H      746.116     281.181     579.528
  H      746.765     278.569     578.464
  H      747.712     279.550     576.511
  H      748.743     281.741     578.409
  H      740.771     278.315     577.902
  H      748.674     283.161     576.358
  H      740.914     278.701     576.200
  H      749.865     281.871     576.212
  P      749.748     277.780     577.264
  C      750.037     275.625     578.667
  O      749.474     276.932     578.605
  O      751.071     277.490     576.634
  O      748.485     277.375     576.349
  H      747.624     277.480     576.779
  H      749.783     275.171     579.602
  H      751.101     275.691     578.579
  H      749.649     275.031     577.866

 6  7  8  9  10  11  12  13  14  15  16  26  30  31  32  33  35 0
 6-311+G(2d,p)
 ****
 37  38 0
 6-311+G(2d,p)
 ****
 1  2  3  4  5  17  18  19  20  21  22  23  24  25 0
 3-21G
 ****
 27  28  29  34  36  39  40  41  42  43  44  45  46 0
 3-21G
 ****


