%nproc=1
%NoSave
%Mem=1900MB
#P OB98/GEN NMR

erre ene a

0 1
  C      106.703     132.392     -49.325
  O      106.356     133.086     -50.514
  P      105.985     132.224     -51.816
  C      108.455     131.645     -52.354
  O      107.165     131.153     -52.019
  C      109.346     130.530     -52.902
  O      110.496     131.125     -53.562
  C      109.882     129.564     -51.840
  O      109.989     128.274     -52.452
  C      111.274     130.099     -51.562
  O      112.124     129.116     -50.978
  C      111.679     130.549     -52.964
  N      116.736     131.201     -52.607
  C      115.975     130.087     -52.627
  N      114.630     129.993     -52.725
  C      114.076     131.214     -52.805
  C      114.723     132.437     -52.762
  C      116.125     132.407     -52.661
  N      116.905     133.540     -52.650
  N      113.812     133.471     -52.843
  C      112.637     132.882     -52.934
  N      112.750     131.521     -52.939
  O      106.219     133.269     -53.006
  O      104.602     131.671     -51.840
  H      112.979     129.536     -50.770
  H      105.362     133.505     -53.413
  H      116.513     129.144     -52.563
  H      111.684     133.392     -52.995
  H      111.999     129.708     -53.592
  H      111.215     130.949     -50.873
  H      109.265     129.506     -50.936
  H      108.782     129.982     -53.668
  H      108.920     132.053     -51.453
  H      117.905     133.431     -52.714
  H      116.476     134.430     -52.880
  H      108.360     132.448     -53.092
  P      108.975     127.141     -51.945
  C      111.024     125.781     -51.128
  O      109.745     126.301     -50.823
  O      108.895     126.134     -53.187
  O      107.625     127.657     -51.564
  H      108.032     125.678     -53.191
  H      111.633     125.780     -50.216
  H      111.535     126.372     -51.894
  H      110.919     124.751     -51.483
  H      106.922     133.098     -48.551
  H      107.563     131.782     -49.506
  H      105.885     131.773     -49.022

 3  4  5  6  7  8  9  10  11  12  22  25  29  30  31  32 0
 6-311+G(2d,p)
 ****
 33  36  37 0
 6-311+G(2d,p)
 ****
 1  2  13  14  15  16  17  18  19  20  21  23  24  26 0
 3-21G
 ****
 27  28  34  35  38  39  40  41  42  43  44  45  46  47  48 0
 3-21G
 ****


