%nproc=1
%NoSave
%Mem=1900MB
#P OB98/GEN NMR

erre ene a

0 1
  C     -365.860    -216.063      41.295
  O     -365.641    -215.576      42.609
  P     -366.909    -215.406      43.576
  C     -366.874    -217.811      44.564
  O     -367.574    -216.856      43.780
  C     -367.833    -218.554      45.500
  O     -368.892    -219.170      44.720
  C     -367.158    -219.667      46.311
  O     -367.788    -219.764      47.595
  C     -367.501    -220.922      45.540
  O     -367.442    -222.084      46.373
  C     -368.904    -220.580      45.040
  N     -370.628    -225.073      43.490
  C     -370.612    -224.532      44.760
  N     -371.031    -225.333      45.761
  N     -370.222    -223.311      45.023
  C     -369.824    -222.626      43.924
  C     -369.810    -223.049      42.612
  C     -370.230    -224.404      42.334
  O     -370.244    -224.957      41.237
  N     -369.370    -222.062      41.769
  C     -369.079    -221.051      42.567
  N     -369.301    -221.359      43.887
  O     -367.968    -214.634      42.646
  O     -366.642    -214.640      44.827
  H     -367.863    -221.845      47.221
  H     -368.026    -213.699      42.918
  H     -370.926    -226.022      43.339
  H     -368.682    -220.099      42.252
  H     -369.657    -220.727      45.825
  H     -366.800    -221.060      44.709
  H     -371.279    -226.304      45.635
  H     -366.078    -219.538      46.443
  H     -370.989    -224.976      46.708
  H     -368.310    -217.825      46.164
  H     -366.123    -217.292      45.164
  H     -366.359    -218.522      43.910
  P     -366.852    -220.267      48.801
  C     -366.644    -217.937      49.939
  O     -365.999    -218.995      49.258
  O     -365.782    -221.206      48.068
  O     -367.585    -220.986      49.885
  H     -365.422    -221.867      48.687
  H     -366.224    -217.855      50.945
  H     -367.725    -218.093      50.014
  H     -366.461    -217.003      49.395
  H     -364.926    -216.121      40.776
  H     -366.517    -215.399      40.774
  H     -366.302    -217.036      41.344

 3  4  5  6  7  8  9  10  11  12  23  26  30  31 0
 6-311+G(2d,p)
 ****
 33  35  36  37  38 0
 6-311+G(2d,p)
 ****
 1  2  13  14  15  16  17  18  19  20  21  22  24  25 0
 3-21G
 ****
 27  28  29  32  34  39  40  41  42  43  44  45  46  47  48  49 0
 3-21G
 ****


