%nproc=1
%NoSave
%Mem=1900MB
#P OB98/GEN NMR

erre ene a

0 1
  C     -340.528    -202.574      -4.095
  O     -339.466    -203.433      -3.712
  P     -339.026    -203.426      -2.165
  C     -340.561    -205.395      -1.427
  O     -340.272    -204.003      -1.335
  C     -340.065    -206.119      -0.178
  O     -340.804    -205.696       0.989
  C     -340.227    -207.631      -0.230
  O     -339.187    -208.264      -0.964
  C     -340.124    -207.987       1.243
  O     -338.743    -208.013       1.651
  C     -340.856    -206.813       1.910
  N     -343.931    -209.037       5.253
  C     -342.582    -208.748       5.350
  N     -341.960    -209.161       6.475
  N     -341.913    -208.106       4.433
  C     -342.666    -207.757       3.360
  C     -344.011    -207.990       3.153
  C     -344.737    -208.714       4.170
  O     -345.917    -209.047       4.120
  N     -344.423    -207.483       1.950
  C     -343.342    -206.943       1.433
  N     -342.239    -207.125       2.223
  O     -339.021    -201.871      -1.788
  O     -337.710    -204.074      -1.890
  H     -338.361    -207.153       1.381
  H     -338.514    -201.728      -0.965
  H     -344.404    -209.540       5.991
  H     -343.304    -206.429       0.478
  H     -340.362    -206.491       2.833
  H     -340.542    -208.970       1.473
  H     -342.405    -209.715       7.189
  H     -341.221    -207.911      -0.605
  H     -340.956    -209.015       6.542
  H     -339.012    -205.849      -0.024
  H     -340.067    -205.806      -2.309
  H     -341.642    -205.530      -1.543
  P     -339.224    -209.870      -1.026
  C     -339.928    -209.657      -3.514
  O     -340.191    -210.230      -2.251
  O     -340.078    -210.260       0.270
  O     -337.875    -210.515      -1.035
  H     -339.834    -211.156       0.579
  H     -340.500    -210.204      -4.274
  H     -338.866    -209.728      -3.768
  H     -340.243    -208.611      -3.526
  H     -340.713    -202.681      -5.143
  H     -340.261    -201.560      -3.882
  H     -341.411    -202.833      -3.549

 3  4  5  6  7  8  9  10  11  12  23  26  30  31 0
 6-311+G(2d,p)
 ****
 33  35  36  37  38 0
 6-311+G(2d,p)
 ****
 1  2  13  14  15  16  17  18  19  20  21  22  24  25 0
 3-21G
 ****
 27  28  29  32  34  39  40  41  42  43  44  45  46  47  48  49 0
 3-21G
 ****


