%nproc=1
%NoSave
%Mem=1900MB
#P OB98/GEN NMR

erre ene a

0 1
  C     -186.725    -219.169    -269.860
  O     -187.628    -218.165    -269.384
  P     -188.820    -218.484    -268.356
  C     -187.912    -216.927    -266.510
  O     -188.305    -218.252    -266.858
  C     -188.919    -216.270    -265.561
  O     -189.075    -217.048    -264.360
  C     -188.534    -214.873    -265.090
  O     -188.752    -213.911    -266.104
  C     -189.431    -214.719    -263.864
  O     -190.758    -214.314    -264.239
  C     -189.436    -216.153    -263.292
  N     -188.546    -216.301    -262.147
  C     -189.114    -216.076    -260.884
  O     -190.283    -215.713    -260.781
  N     -188.320    -216.243    -259.771
  C     -187.062    -216.530    -259.911
  N     -186.331    -216.691    -258.772
  C     -186.408    -216.688    -261.222
  C     -187.202    -216.560    -262.284
  O     -189.477    -219.807    -268.578
  O     -189.880    -217.296    -268.570
  H     -191.067    -214.954    -264.908
  H     -190.779    -217.633    -268.393
  H     -185.352    -216.898    -261.296
  H     -186.807    -216.670    -263.289
  H     -190.450    -216.439    -262.987
  H     -189.051    -213.972    -263.157
  H     -187.482    -214.862    -264.774
  H     -189.893    -216.245    -266.071
  H     -186.811    -216.586    -257.888
  H     -187.840    -216.337    -267.429
  H     -185.345    -216.919    -258.770
  H     -186.920    -216.967    -266.042
  P     -187.926    -212.537    -266.092
  C     -185.953    -213.210    -267.588
  O     -186.375    -212.900    -266.272
  O     -188.232    -211.612    -264.959
  O     -188.294    -211.860    -267.497
  H     -188.276    -210.889    -267.391
  H     -184.874    -213.040    -267.659
  H     -186.460    -212.579    -268.325
  H     -186.160    -214.261    -267.798
  H     -186.019    -218.725    -270.531
  H     -187.276    -219.929    -270.374
  H     -186.205    -219.603    -269.031

 3  4  5  6  7  8  9  10  11  12  13  23  27  28  29  30  32 0
 6-311+G(2d,p)
 ****
 34  35 0
 6-311+G(2d,p)
 ****
 1  2  14  15  16  17  18  19  20  21  22  24  25  26 0
 3-21G
 ****
 31  33  36  37  38  39  40  41  42  43  44  45  46 0
 3-21G
 ****


