%nproc=1
%NoSave
%Mem=1900MB
#P OB98/GEN NMR

erre ene a

0 1
  C       87.546    -297.558     -65.679
  O       86.975    -296.291     -65.456
  P       87.757    -295.202     -64.575
  C       86.482    -294.577     -62.435
  O       87.408    -295.478     -63.037
  C       85.060    -294.889     -62.893
  O       84.657    -296.198     -62.437
  C       84.006    -293.928     -62.362
  O       84.043    -292.700     -63.065
  C       82.727    -294.736     -62.561
  O       82.275    -294.638     -63.925
  C       83.221    -296.163     -62.263
  N       79.816    -298.815     -59.526
  C       79.812    -298.408     -60.814
  N       80.746    -297.661     -61.460
  C       81.741    -297.333     -60.638
  C       81.862    -297.643     -59.282
  C       80.845    -298.438     -58.730
  N       80.871    -298.917     -57.435
  N       83.020    -297.081     -58.758
  C       83.576    -296.444     -59.770
  N       82.873    -296.617     -60.928
  O       87.604    -293.783     -65.020
  O       89.291    -295.662     -64.683
  H       82.126    -293.698     -64.112
  H       89.819    -294.943     -65.093
  H       78.961    -298.720     -61.408
  H       84.488    -295.864     -59.712
  H       82.801    -296.892     -62.972
  H       81.915    -294.406     -61.918
  H       84.165    -293.754     -61.286
  H       85.049    -294.903     -63.990
  H       86.754    -293.555     -62.727
  H       80.170    -299.603     -57.191
  H       81.756    -298.910     -56.931
  H       86.554    -294.658     -61.340
  P       83.163    -291.458     -62.556
  C       81.368    -290.702     -64.219
  O       81.705    -291.619     -63.198
  O       83.796    -290.112     -62.714
  O       82.916    -291.791     -61.007
  H       82.864    -290.959     -60.498
  H       81.099    -289.732     -63.767
  H       80.503    -291.088     -64.769
  H       82.197    -290.554     -64.909
  H       86.886    -298.145     -66.283
  H       87.703    -298.049     -64.741
  H       88.483    -297.443     -66.182

 3  4  5  6  7  8  9  10  11  12  22  25  29  30  31  32 0
 6-311+G(2d,p)
 ****
 33  36  37 0
 6-311+G(2d,p)
 ****
 1  2  13  14  15  16  17  18  19  20  21  23  24  26 0
 3-21G
 ****
 27  28  34  35  38  39  40  41  42  43  44  45  46  47  48 0
 3-21G
 ****


