%nproc=1
%NoSave
%Mem=1900MB
#P OB98/GEN NMR

erre ene a

0 1
  C     -103.463     875.994     566.847
  O     -102.776     875.418     567.938
  P     -101.329     874.782     567.732
  C     -100.670     875.329     570.162
  O     -100.771     874.319     569.179
  C      -99.751     874.880     571.302
  O      -98.410     874.655     570.816
  C      -99.596     875.909     572.421
  O     -100.758     875.995     573.238
  C      -98.353     875.364     573.119
  O      -98.692     874.286     574.005
  C      -97.503     874.859     571.935
  N      -96.427     875.766     571.595
  C      -95.381     875.820     572.529
  O      -95.450     875.209     573.574
  N      -94.280     876.599     572.216
  C      -94.292     877.338     571.152
  N      -93.160     878.048     570.859
  C      -95.445     877.424     570.224
  C      -96.455     876.593     570.513
  O     -100.369     875.603     566.930
  O     -101.617     873.402     567.006
  H     -101.035     873.337     566.205
  H      -97.893     874.100     574.560
  H      -95.426     878.110     569.381
  H      -97.337     876.563     569.863
  H      -97.086     873.860     572.164
  H      -97.857     876.134     573.722
  H      -99.366     876.880     571.985
  H     -100.132     873.924     571.713
  H      -92.356     877.939     571.524
  H     -101.656     875.553     570.562
  H      -92.934     878.363     569.928
  H     -100.290     876.255     569.708
  P     -101.202     877.465     573.725
  C     -103.585     876.549     573.212
  O     -102.761     877.412     574.008
  O     -101.079     878.342     572.380
  O     -100.352     878.020     574.806
  H     -100.756     879.248     572.599
  H     -104.530     876.387     573.752
  H     -103.093     875.617     573.040
  H     -103.808     877.063     572.255
  H     -104.410     876.365     567.178
  H     -103.615     875.253     566.090
  H     -102.884     876.800     566.446

 3  4  5  6  7  8  9  10  11  12  13  24  27  28  29  30  32 0
 6-311+G(2d,p)
 ****
 34  35 0
 6-311+G(2d,p)
 ****
 1  2  14  15  16  17  18  19  20  21  22  23  25  26 0
 3-21G
 ****
 31  33  36  37  38  39  40  41  42  43  44  45  46 0
 3-21G
 ****


