%nproc=1
%NoSave
%Mem=1900MB
#P OB98/GEN NMR

erre ene a

0 1
  C      -80.929     138.642     172.829
  O      -82.298     138.244     172.778
  P      -83.350     138.945     173.766
  C      -85.506     138.423     172.468
  O      -84.758     138.179     173.650
  C      -86.601     137.370     172.241
  O      -86.028     136.121     171.774
  C      -87.437     137.049     173.491
  O      -88.775     136.802     173.046
  C      -86.793     135.774     173.992
  O      -87.629     135.054     174.883
  C      -86.485     135.079     172.662
  N      -85.499     134.019     172.800
  C      -85.975     132.734     173.072
  O      -87.173     132.554     173.287
  N      -85.073     131.698     173.123
  C      -83.803     131.950     173.062
  N      -82.943     130.896     173.096
  C      -83.257     133.318     172.956
  C      -84.154     134.289     172.806
  O      -83.432     140.431     173.665
  O      -82.827     138.495     175.216
  H      -87.103     134.351     175.320
  H      -82.992     139.222     175.848
  H      -82.190     133.487     172.991
  H      -83.855     135.324     172.715
  H      -87.396     134.652     172.223
  H      -85.864     136.014     174.521
  H      -87.449     137.861     174.225
  H      -87.263     137.742     171.446
  H      -83.331     129.966     173.194
  H      -84.830     138.425     171.610
  H      -81.941     131.008     173.001
  H      -85.933     139.432     172.517
  P      -89.845     138.000     173.092
  C      -90.529     137.968     170.585
  O      -90.914     137.754     171.924
  O      -88.988     139.226     172.501
  O      -90.378     138.353     174.442
  H      -89.362     140.061     172.834
  H      -91.261     137.494     169.928
  H      -89.547     137.532     170.377
  H      -90.509     139.042     170.371
  H      -80.368     138.081     172.111
  H      -80.540     138.458     173.809
  H      -80.852     139.686     172.605

 3  4  5  6  7  8  9  10  11  12  13  23  27  28  29  30  32 0
 6-311+G(2d,p)
 ****
 34  35 0
 6-311+G(2d,p)
 ****
 1  2  14  15  16  17  18  19  20  21  22  24  25  26 0
 3-21G
 ****
 31  33  36  37  38  39  40  41  42  43  44  45  46 0
 3-21G
 ****


