%nproc=1
%NoSave
%Mem=1900MB
#P OB98/GEN NMR

erre ene a

0 1
  C     -160.188      61.193    -348.021
  O     -160.386      60.663    -349.321
  P     -159.414      61.169    -350.487
  C     -157.880      59.111    -350.001
  O     -157.971      60.511    -350.225
  C     -157.067      58.459    -351.120
  O     -157.778      58.564    -352.378
  C     -155.716      59.122    -351.352
  O     -154.760      58.708    -350.394
  C     -155.386      58.660    -352.771
  O     -154.806      57.345    -352.760
  C     -156.786      58.631    -353.426
  N     -157.016      59.775    -354.306
  C     -156.221      59.832    -355.449
  O     -155.354      58.991    -355.704
  N     -156.423      60.905    -356.265
  C     -157.280      61.945    -356.035
  O     -157.378      62.914    -356.773
  C     -158.075      61.846    -354.796
  C     -157.905      60.790    -354.003
  O     -159.192      62.717    -350.159
  O     -159.937      60.964    -351.872
  H     -154.405      57.210    -353.641
  H     -159.118      63.229    -350.990
  H     -155.874      60.958    -357.108
  H     -158.768      62.650    -354.579
  H     -158.471      60.703    -353.080
  H     -156.911      57.718    -354.013
  H     -154.677      59.319    -353.268
  H     -155.828      60.217    -351.352
  H     -156.940      57.395    -350.884
  H     -158.885      58.682    -349.970
  H     -157.403      58.934    -349.025
  P     -153.544      59.716    -350.097
  C     -154.720      60.935    -348.100
  O     -154.230      61.002    -349.422
  O     -153.169      60.170    -351.579
  O     -152.427      59.080    -349.334
  H     -153.940      60.200    -352.161
  H     -154.096      60.291    -347.477
  H     -155.741      60.546    -348.114
  H     -154.729      61.942    -347.674
  H     -160.904      60.768    -347.350
  H     -160.310      62.256    -348.047
  H     -159.200      60.955    -347.686

 3  4  5  6  7  8  9  10  11  12  13  23  28  29  30  31  32 0
 6-311+G(2d,p)
 ****
 33  34 0
 6-311+G(2d,p)
 ****
 1  2  14  15  16  17  18  19  20  21  22  24  25  26 0
 3-21G
 ****
 27  35  36  37  38  39  40  41  42  43  44  45 0
 3-21G
 ****


