%nproc=1
%NoSave
%Mem=1900MB
#P OB98/GEN NMR

erre ene a

0 1
  C     -208.080     198.537    -193.519
  O     -207.622     198.188    -194.829
  P     -207.035     199.364    -195.749
  C     -205.169     197.912    -196.824
  O     -206.322     198.709    -197.033
  C     -204.688     197.265    -198.131
  O     -205.580     196.184    -198.529
  C     -204.621     198.239    -199.309
  O     -203.577     197.812    -200.187
  C     -205.954     198.022    -199.996
  O     -205.942     198.500    -201.343
  C     -206.102     196.511    -199.834
  N     -209.994     196.098    -203.015
  C     -208.737     196.633    -203.212
  N     -208.468     197.094    -204.452
  N     -207.825     196.704    -202.279
  C     -208.229     196.171    -201.101
  C     -209.448     195.620    -200.777
  C     -210.454     195.568    -201.817
  O     -211.591     195.119    -201.693
  N     -209.481     195.209    -199.466
  C     -208.286     195.518    -199.001
  N     -207.478     196.072    -199.960
  O     -205.805     199.912    -194.883
  O     -208.017     200.449    -196.046
  H     -206.809     198.277    -201.740
  H     -206.025     200.787    -194.520
  H     -210.663     196.076    -203.768
  H     -207.955     195.370    -197.983
  H     -205.522     195.953    -200.582
  H     -206.747     198.552    -199.451
  H     -209.105     197.019    -205.231
  H     -204.454     199.285    -199.031
  H     -207.537     197.453    -204.637
  H     -203.699     196.823    -197.959
  H     -205.379     197.131    -196.088
  H     -204.386     198.534    -196.378
  P     -202.452     198.891    -200.563
  C     -200.505     197.171    -200.507
  O     -201.270     198.078    -201.277
  O     -201.823     199.286    -199.139
  O     -202.952     200.087    -201.302
  H     -201.431     200.178    -199.177
  H     -200.825     196.154    -200.736
  H     -200.609     197.354    -199.433
  H     -199.452     197.278    -200.781
  H     -208.442     197.661    -193.023
  H     -208.870     199.255    -193.597
  H     -207.271     198.956    -192.958

 3  4  5  6  7  8  9  10  11  12  23  26  30  31 0
 6-311+G(2d,p)
 ****
 33  35  36  37  38 0
 6-311+G(2d,p)
 ****
 1  2  13  14  15  16  17  18  19  20  21  22  24  25 0
 3-21G
 ****
 27  28  29  32  34  39  40  41  42  43  44  45  46  47  48  49 0
 3-21G
 ****


