%nproc=1
%NoSave
%Mem=1900MB
#P OB98/GEN NMR

erre ene a

0 1
  C      679.704     517.668      66.034
  O      678.973     518.888      66.210
  P      677.706     519.160      65.263
  C      676.031     519.228      67.260
  O      676.582     519.904      66.133
  C      675.877     520.191      68.434
  O      677.141     520.774      68.829
  C      674.954     521.369      68.141
  O      673.582     521.022      68.320
  C      675.380     522.351      69.221
  O      674.756     521.994      70.478
  C      676.892     522.122      69.287
  N      679.885     526.206      69.403
  C      679.295     525.504      70.449
  N      679.558     525.943      71.700
  N      678.538     524.454      70.276
  C      678.378     524.120      68.962
  C      678.907     524.745      67.856
  C      679.736     525.911      68.065
  O      680.266     526.584      67.177
  N      678.519     524.111      66.705
  C      677.773     523.098      67.109
  N      677.650     523.063      68.478
  O      677.099     517.696      65.077
  O      678.043     519.798      63.956
  H      673.800     521.941      70.308
  H      676.623     517.630      64.216
  H      680.456     527.009      69.593
  H      677.312     522.351      66.461
  H      677.285     522.197      70.320
  H      675.076     523.374      69.008
  H      680.178     526.714      71.913
  H      675.146     521.800      67.149
  H      679.155     525.416      72.475
  H      675.480     519.629      69.297
  H      676.675     518.398      67.550
  H      675.075     518.773      66.970
  P      672.517     521.595      67.250
  C      671.470     519.236      67.017
  O      671.258     520.600      67.308
  O      673.221     521.256      65.848
  O      672.218     523.050      67.383
  H      672.970     521.933      65.178
  H      670.550     518.680      67.268
  H      672.291     518.813      67.613
  H      671.677     519.103      65.948
  H      680.513     517.633      66.733
  H      680.091     517.625      65.038
  H      679.053     516.835      66.200

 3  4  5  6  7  8  9  10  11  12  23  26  30  31 0
 6-311+G(2d,p)
 ****
 33  35  36  37  38 0
 6-311+G(2d,p)
 ****
 1  2  13  14  15  16  17  18  19  20  21  22  24  25 0
 3-21G
 ****
 27  28  29  32  34  39  40  41  42  43  44  45  46  47  48  49 0
 3-21G
 ****


