%nproc=1
%NoSave
%Mem=1900MB
#P OB98/GEN NMR

erre ene a

0 1
  C     -257.283    -592.715     653.829
  O     -257.949    -593.932     653.520
  P     -257.737    -595.306     654.296
  C     -260.087    -595.304     655.467
  O     -258.672    -595.302     655.599
  C     -260.785    -596.168     656.533
  O     -260.480    -597.565     656.302
  C     -260.262    -595.836     657.929
  O     -260.788    -594.732     658.640
  C     -260.320    -597.148     658.687
  O     -261.529    -597.293     659.439
  C     -260.256    -598.202     657.574
  N     -257.371    -601.880     659.656
  C     -258.608    -601.413     660.052
  N     -259.130    -601.952     661.173
  N     -259.274    -600.483     659.411
  C     -258.598    -599.963     658.366
  C     -257.361    -600.326     657.881
  C     -256.657    -601.401     658.561
  O     -255.568    -601.861     658.246
  N     -256.984    -599.560     656.809
  C     -257.988    -598.724     656.653
  N     -258.999    -598.927     657.570
  O     -256.319    -595.732     654.482
  O     -258.453    -596.393     653.325
  H     -261.591    -598.218     659.731
  H     -257.942    -597.224     653.424
  H     -256.923    -602.616     660.169
  H     -258.039    -597.950     655.888
  H     -261.046    -598.950     657.699
  H     -259.496    -597.217     659.414
  H     -258.621    -602.584     661.774
  H     -259.185    -595.606     657.819
  H     -259.928    -601.467     661.591
  H     -261.874    -596.072     656.448
  H     -260.315    -595.679     654.467
  H     -260.469    -594.278     655.518
  P     -259.935    -593.590     659.387
  C     -260.790    -591.779     657.781
  O     -259.652    -592.419     658.326
  O     -258.486    -594.251     659.577
  O     -260.495    -593.137     660.698
  H     -257.973    -593.746     660.243
  H     -260.496    -591.244     656.876
  H     -261.195    -591.075     658.510
  H     -261.563    -592.517     657.521
  H     -257.608    -591.950     653.155
  H     -256.226    -592.852     653.731
  H     -257.513    -592.427     654.834

 3  4  5  6  7  8  9  10  11  12  23  26  30  31 0
 6-311+G(2d,p)
 ****
 33  35  36  37  38 0
 6-311+G(2d,p)
 ****
 1  2  13  14  15  16  17  18  19  20  21  22  24  25 0
 3-21G
 ****
 27  28  29  32  34  39  40  41  42  43  44  45  46  47  48  49 0
 3-21G
 ****


