%nproc=1
%NoSave
%Mem=1900MB
#P OB98/GEN NMR

erre ene a

0 1
  C     -304.933    -814.153    -274.884
  O     -305.273    -813.608    -273.629
  H     -305.843    -814.256    -275.478
  H     -304.486    -815.139    -274.752
  H     -304.240    -813.501    -275.423
  P     -304.106    -813.079    -272.668
  C     -303.796    -815.417    -271.623
  O     -303.183    -814.353    -272.331
  C     -302.762    -816.473    -271.226
  O     -302.151    -816.090    -269.959
  C     -303.349    -817.886    -271.042
  O     -302.329    -818.822    -271.396
  C     -303.599    -817.917    -269.543
  O     -303.765    -819.241    -269.081
  C     -302.372    -817.166    -269.029
  N     -302.538    -816.691    -267.657
  C     -301.922    -817.438    -266.661
  O     -301.283    -818.469    -266.885
  N     -302.094    -816.994    -265.379
  C     -302.854    -815.927    -265.005
  O     -303.000    -815.587    -263.836
  C     -303.524    -815.197    -266.100
  C     -303.330    -815.605    -267.359
  O     -304.546    -812.297    -271.477
  O     -303.162    -812.213    -273.633
  H     -303.674    -819.279    -268.105
  H     -302.736    -811.496    -273.130
  H     -301.644    -817.514    -264.646
  H     -304.147    -814.358    -265.832
  H     -303.808    -815.096    -268.181
  H     -301.482    -817.817    -269.051
  H     -304.513    -817.368    -269.294
  H     -304.248    -818.059    -271.638
  H     -301.957    -816.473    -271.971
  H     -304.556    -815.865    -272.270
  H     -304.285    -815.019    -270.719
  P     -302.327    -819.593    -272.798
  C     -303.774    -821.603    -272.094
  O     -303.682    -820.452    -272.925
  O     -301.078    -820.375    -273.073
  O     -302.514    -818.435    -273.900
  H     -302.103    -818.710    -274.742
  H     -304.711    -822.091    -272.263
  H     -303.706    -821.308    -271.068
  H     -302.975    -822.275    -272.326

 6  7  8  9  10  11  12  13  14  15  16  26  31  32  33  34  35 0
 6-311+G(2d,p)
 ****
 36  37 0
 6-311+G(2d,p)
 ****
 1  2  3  4  5  17  18  19  20  21  22  23  24  25 0
 3-21G
 ****
 27  28  29  30  38  39  40  41  42  43  44  45 0
 3-21G
 ****


