%nproc=1
%NoSave
%Mem=1900MB
#P OB98/GEN NMR

erre ene a

0 1
  C       61.672    -418.213    -230.317
  O       62.009    -418.970    -229.150
  P       61.897    -420.567    -229.288
  C       59.807    -421.417    -227.991
  O       60.339    -420.959    -229.231
  C       58.291    -421.581    -228.084
  O       57.612    -420.332    -228.312
  C       57.849    -422.503    -229.216
  O       58.007    -423.855    -228.823
  C       56.393    -422.101    -229.399
  O       55.537    -422.779    -228.454
  C       56.419    -420.590    -229.096
  N       53.677    -417.368    -231.897
  C       53.293    -418.173    -230.845
  N       52.004    -418.087    -230.458
  N       54.108    -418.984    -230.218
  C       55.368    -418.967    -230.701
  C       55.873    -418.193    -231.725
  C       54.967    -417.303    -232.414
  O       55.260    -416.558    -233.336
  N       57.224    -418.410    -231.894
  C       57.498    -419.395    -231.057
  N       56.420    -419.728    -230.269
  O       62.478    -421.099    -227.900
  O       62.645    -421.118    -230.451
  H       55.743    -422.463    -227.554
  H       63.342    -421.530    -228.042
  H       53.010    -416.774    -232.351
  H       58.455    -419.885    -230.974
  H       55.555    -420.284    -228.493
  H       56.020    -422.354    -230.389
  H       51.319    -417.480    -230.896
  H       58.416    -422.284    -230.124
  H       51.700    -418.664    -229.679
  H       57.943    -421.985    -227.119
  H       60.054    -420.704    -227.198
  H       60.291    -422.360    -227.728
  P       59.045    -424.765    -229.644
  C       57.330    -425.350    -231.504
  O       58.571    -424.763    -231.177
  O       58.723    -426.242    -229.137
  O       60.479    -424.415    -229.422
  H       59.556    -426.720    -228.960
  H       56.923    -424.844    -232.385
  H       56.619    -425.270    -230.684
  H       57.486    -426.413    -231.740
  H       61.782    -417.169    -230.109
  H       60.659    -418.416    -230.594
  H       62.323    -418.488    -231.121

 3  4  5  6  7  8  9  10  11  12  23  26  30  31 0
 6-311+G(2d,p)
 ****
 33  35  36  37  38 0
 6-311+G(2d,p)
 ****
 1  2  13  14  15  16  17  18  19  20  21  22  24  25 0
 3-21G
 ****
 27  28  29  32  34  39  40  41  42  43  44  45  46  47  48  49 0
 3-21G
 ****


