%nproc=1
%NoSave
%Mem=1900MB
#P OB98/GEN NMR

erre ene a

0 1
  C      302.692    -267.604    -439.967
  O      301.918    -268.801    -439.828
  P      302.537    -270.201    -439.334
  C      301.869    -269.608    -436.909
  O      302.899    -270.063    -437.773
  C      301.958    -270.301    -435.550
  O      301.747    -271.724    -435.693
  C      303.302    -270.193    -434.847
  O      303.534    -268.898    -434.313
  C      303.182    -271.300    -433.795
  O      302.500    -270.826    -432.623
  C      302.318    -272.348    -434.520
  N      303.062    -273.542    -434.873
  C      302.886    -274.664    -434.055
  O      302.187    -274.583    -433.042
  N      303.509    -275.840    -434.398
  C      304.326    -275.863    -435.401
  N      304.903    -277.052    -435.706
  C      304.650    -274.667    -436.210
  C      303.989    -273.557    -435.896
  O      303.676    -270.686    -440.175
  O      301.314    -271.235    -439.362
  H      301.658    -272.139    -439.485
  H      303.138    -270.272    -432.131
  H      305.369    -274.723    -437.016
  H      304.155    -272.640    -436.453
  H      301.463    -272.626    -433.895
  H      304.160    -271.667    -433.474
  H      304.102    -270.456    -435.554
  H      301.158    -269.892    -434.905
  H      304.651    -277.858    -435.138
  H      300.898    -269.841    -437.366
  H      305.535    -277.184    -436.480
  H      301.946    -268.517    -436.797
  P      305.032    -268.568    -433.846
  C      305.512    -267.458    -436.147
  O      305.923    -268.388    -435.169
  O      305.548    -269.945    -433.213
  O      305.137    -267.444    -432.865
  H      306.092    -269.758    -432.426
  H      306.393    -267.100    -436.682
  H      305.005    -266.600    -435.695
  H      304.839    -267.952    -436.848
  H      302.062    -266.809    -440.308
  H      303.476    -267.767    -440.676
  H      303.116    -267.342    -439.020

 3  4  5  6  7  8  9  10  11  12  13  24  27  28  29  30  32 0
 6-311+G(2d,p)
 ****
 34  35 0
 6-311+G(2d,p)
 ****
 1  2  14  15  16  17  18  19  20  21  22  23  25  26 0
 3-21G
 ****
 31  33  36  37  38  39  40  41  42  43  44  45  46 0
 3-21G
 ****


