%nproc=1
%NoSave
%Mem=1900MB
#P OB98/GEN NMR

erre ene a

0 1
  C      -65.903    -143.756      46.859
  O      -65.745    -142.526      47.537
  H      -66.667    -143.665      46.083
  H      -64.954    -144.025      46.388
  H      -66.183    -144.544      47.565
  P      -67.043    -141.933      48.271
  C      -67.890    -141.094      45.957
  O      -67.576    -140.767      47.304
  C      -68.186    -139.815      45.184
  O      -68.499    -140.128      43.807
  C      -69.386    -139.038      45.715
  O      -69.058    -138.224      46.828
  C      -69.739    -138.197      44.500
  O      -68.816    -137.100      44.383
  C      -69.524    -139.201      43.356
  N      -73.958    -139.068      40.802
  C      -72.950    -138.174      40.906
  N      -71.794    -138.295      41.588
  C      -71.723    -139.487      42.200
  C      -72.669    -140.500      42.179
  C      -73.838    -140.255      41.441
  N      -74.882    -141.149      41.358
  N      -72.250    -141.570      42.947
  C      -71.066    -141.213      43.405
  N      -70.720    -139.950      43.008
  O      -66.442    -141.122      49.514
  O      -68.080    -142.929      48.669
  H      -67.917    -137.477      44.431
  H      -67.148    -140.908      50.153
  H      -73.094    -137.239      40.373
  H      -70.432    -141.825      44.032
  H      -69.161    -138.723      42.439
  H      -70.742    -137.768      44.561
  H      -70.226    -139.705      45.944
  H      -67.282    -139.193      45.186
  H      -68.770    -141.746      45.944
  H      -75.735    -140.823      40.932
  H      -74.867    -141.969      41.948
  H      -67.045    -141.622      45.505
  P      -69.814    -138.524      48.214
  C      -70.210    -135.957      48.287
  O      -69.865    -137.132      49.012
  O      -68.737    -139.379      49.030
  O      -71.116    -139.240      48.070
  H      -69.177    -140.024      49.615
  H      -70.202    -135.115      48.948
  H      -71.187    -136.071      47.866
  H      -69.500    -135.801      47.502

 6  7  8  9  10  11  12  13  14  15  25  28  32  33  34  35 0
 6-311+G(2d,p)
 ****
 36  39  40 0
 6-311+G(2d,p)
 ****
 1  2  3  4  5  16  17  18  19  20  21  22  23  24 0
 3-21G
 ****
 26  27  29  30  31  37  38  41  42  43  44  45  46  47 0
 3-21G
 ****
 48 0
 3-21G
 ****


