%nproc=1
%NoSave
%Mem=1900MB
#P OB98/GEN NMR

erre ene a

0 1
  C      273.647    -122.013     201.492
  O      273.008    -122.653     200.401
  H      272.944    -121.960     202.328
  H      273.945    -120.994     201.227
  H      274.526    -122.584     201.806
  P      273.784    -122.713     198.999
  C      274.860    -120.925     197.467
  O      273.966    -121.187     198.545
  C      274.498    -119.606     196.794
  O      274.201    -118.602     197.784
  C      275.625    -119.036     195.948
  O      275.744    -119.732     194.723
  C      275.195    -117.586     195.835
  O      274.182    -117.418     194.834
  C      274.619    -117.326     197.250
  N      275.578    -116.678     198.137
  C      275.743    -115.299     197.960
  O      275.098    -114.698     197.098
  N      276.655    -114.643     198.747
  C      277.322    -115.295     199.647
  N      278.215    -114.587     200.394
  C      277.171    -116.744     199.874
  C      276.293    -117.362     199.091
  O      273.207    -123.609     197.947
  O      275.270    -123.146     199.409
  H      273.888    -116.489     194.911
  H      275.353    -124.118     199.409
  H      277.747    -117.245     200.638
  H      276.114    -118.432     199.194
  H      273.723    -116.695     197.192
  H      276.029    -116.937     195.575
  H      276.567    -119.069     196.503
  H      273.595    -119.763     196.190
  H      278.294    -113.595     200.195
  H      274.761    -121.755     196.757
  H      278.720    -114.965     201.176
  H      275.895    -120.895     197.824
  P      277.186    -120.140     194.151
  C      279.511    -119.026     194.101
  O      278.150    -118.906     194.511
  O      277.209    -120.576     192.726
  O      277.669    -121.282     195.169
  H      277.189    -122.130     195.015
  H      280.050    -118.150     194.394
  H      279.555    -119.133     193.037
  H      279.949    -119.886     194.564

 6  7  8  9  10  11  12  13  14  15  16  26  30  31  32  33  35 0
 6-311+G(2d,p)
 ****
 37  38 0
 6-311+G(2d,p)
 ****
 1  2  3  4  5  17  18  19  20  21  22  23  24  25 0
 3-21G
 ****
 27  28  29  34  36  39  40  41  42  43  44  45  46 0
 3-21G
 ****


