%nproc=1
%NoSave
%Mem=1900MB
#P OB98/GEN NMR

erre ene a

0 1
  C      -42.354     280.627    -450.916
  O      -42.479     279.929    -452.141
  H      -42.257     281.693    -451.130
  H      -41.462     280.290    -450.381
  H      -43.244     280.468    -450.300
  P      -42.658     278.337    -452.042
  C      -45.244     278.386    -452.188
  O      -44.105     278.144    -451.374
  C      -46.117     277.134    -452.274
  O      -45.452     276.100    -453.024
  C      -46.450     276.512    -450.920
  O      -47.521     277.201    -450.299
  C      -46.850     275.108    -451.344
  O      -48.205     275.118    -451.842
  C      -45.872     274.811    -452.497
  N      -43.494     270.281    -452.885
  C      -44.738     270.671    -453.231
  N      -45.317     271.882    -453.058
  C      -44.471     272.736    -452.461
  C      -43.169     272.477    -452.050
  C      -42.675     271.184    -452.296
  N      -41.399     270.791    -451.947
  N      -42.606     273.595    -451.477
  C      -43.536     274.531    -451.581
  N      -44.692     274.049    -452.140
  O      -41.531     277.598    -451.410
  O      -42.942     277.966    -453.577
  H      -48.391     274.237    -452.207
  H      -43.501     278.644    -453.995
  H      -45.354     269.917    -453.711
  H      -43.410     275.563    -451.291
  H      -46.362     274.270    -453.313
  H      -46.822     274.401    -450.513
  H      -45.568     276.454    -450.278
  H      -47.031     277.398    -452.821
  H      -44.933     278.688    -453.196
  H      -41.188     269.807    -452.001
  H      -40.840     271.428    -451.401
  H      -45.802     279.206    -451.741
  P      -47.904     276.908    -448.769
  C      -46.949     279.146    -447.932
  O      -46.851     277.727    -447.870
  O      -48.026     275.467    -448.412
  O      -49.271     277.701    -448.534
  H      -49.866     277.184    -447.960
  H      -46.205     279.583    -447.299
  H      -47.921     279.451    -447.604
  H      -46.795     279.470    -448.940

 6  7  8  9  10  11  12  13  14  15  25  28  32  33  34  35 0
 6-311+G(2d,p)
 ****
 36  39  40 0
 6-311+G(2d,p)
 ****
 1  2  3  4  5  16  17  18  19  20  21  22  23  24 0
 3-21G
 ****
 26  27  29  30  31  37  38  41  42  43  44  45  46  47 0
 3-21G
 ****
 48 0
 3-21G
 ****


