%nproc=1
%NoSave
%Mem=1900MB
#P OB98/GEN NMR

erre ene a

0 1
  C     2552.397     333.057    -319.557
  O     2552.014     334.407    -319.782
  P     2552.942     335.540    -319.094
  C     2553.508     337.147    -321.086
  O     2553.907     336.062    -320.258
  C     2553.155     336.630    -322.475
  O     2551.942     335.840    -322.423
  C     2552.865     337.728    -323.476
  O     2554.045     338.368    -323.937
  C     2552.111     336.961    -324.569
  O     2553.034     336.274    -325.410
  C     2551.292     335.948    -323.734
  N     2549.903     336.309    -323.605
  C     2549.104     336.140    -324.732
  O     2549.542     335.720    -325.823
  N     2547.795     336.490    -324.623
  C     2547.196     337.035    -323.503
  O     2546.011     337.285    -323.466
  C     2548.087     337.221    -322.362
  C     2549.359     336.897    -322.442
  O     2553.901     334.649    -318.150
  O     2552.151     336.582    -318.391
  H     2554.114     333.789    -318.540
  H     2552.482     335.758    -326.052
  H     2547.211     336.365    -325.435
  H     2547.634     337.670    -321.456
  H     2550.016     337.038    -321.607
  H     2551.365     334.952    -324.183
  H     2551.513     337.615    -325.213
  H     2552.195     338.476    -323.049
  H     2553.949     335.985    -322.858
  H     2554.327     337.863    -321.172
  H     2552.680     337.666    -320.614
  P     2554.293     339.885    -323.429
  C     2556.881     340.014    -323.054
  O     2555.588     339.892    -322.496
  O     2553.084     340.088    -322.410
  O     2554.301     340.902    -324.553
  H     2552.952     339.308    -321.819
  H     2557.570     340.347    -322.274
  H     2556.892     340.769    -323.852
  H     2557.205     339.036    -323.472
  H     2551.713     332.404    -320.058
  H     2552.381     332.852    -318.507
  H     2553.385     332.898    -319.937

 3  4  5  6  7  8  9  10  11  12  13  24  28  29  30  31  32 0
 6-311+G(2d,p)
 ****
 33  34 0
 6-311+G(2d,p)
 ****
 1  2  14  15  16  17  18  19  20  21  22  23  25  26  27 0
 3-21G
 ****
 35  36  37  38  39  40  41  42  43  44  45 0
 3-21G
 ****


