%nproc=1
%NoSave
%Mem=1900MB
#P OB98/GEN NMR

erre ene a

0 1
  C     -276.486      -7.139      80.978
  O     -277.680      -7.929      80.848
  P     -279.063      -7.193      80.456
  C     -280.189      -7.945      82.692
  O     -279.929      -6.894      81.773
  C     -281.687      -8.030      83.034
  O     -282.167      -6.753      83.542
  C     -282.585      -8.408      81.839
  O     -283.681      -9.173      82.358
  C     -283.077      -7.048      81.364
  O     -284.257      -7.125      80.569
  C     -283.278      -6.350      82.715
  N     -283.344      -4.889      82.627
  C     -284.527      -4.314      82.162
  O     -285.501      -4.955      81.778
  N     -284.563      -2.941      82.147
  C     -283.532      -2.103      82.485
  O     -283.613      -0.885      82.411
  C     -282.296      -2.760      82.928
  C     -282.267      -4.105      82.987
  O     -279.891      -8.394      79.778
  O     -278.934      -6.051      79.502
  H     -284.891      -7.686      81.050
  H     -280.305      -8.081      78.948
  H     -285.410      -2.513      81.831
  H     -281.461      -2.135      83.221
  H     -281.356      -4.609      83.320
  H     -284.191      -6.727      83.192
  H     -282.299      -6.570      80.767
  H     -282.058      -8.972      81.067
  H     -281.804      -8.761      83.841
  H     -279.625      -7.754      83.617
  H     -279.841      -8.887      82.266
  P     -283.609     -10.782      82.257
  C     -286.088     -10.968      81.432
  O     -284.729     -11.235      81.190
  O     -284.264     -11.184      83.667
  O     -282.229     -11.334      82.058
  H     -285.063     -10.674      83.872
  H     -286.236      -9.972      81.848
  H     -286.494     -11.715      82.122
  H     -286.628     -11.030      80.479
  H     -275.665      -7.774      81.240
  H     -276.626      -6.404      81.743
  H     -276.278      -6.652      80.048

 3  4  5  6  7  8  9  10  11  12  13  23  28  29  30  31  32 0
 6-311+G(2d,p)
 ****
 33  34 0
 6-311+G(2d,p)
 ****
 1  2  14  15  16  17  18  19  20  21  22  24  25  26 0
 3-21G
 ****
 27  35  36  37  38  39  40  41  42  43  44  45 0
 3-21G
 ****


