%nproc=1
%NoSave
%Mem=1900MB
#P OB98/GEN NMR

erre ene a

0 1
  C     -111.496     -32.103      26.124
  O     -111.722     -31.894      27.505
  H     -110.455     -31.860      25.898
  H     -112.147     -31.454      25.533
  H     -111.679     -33.149      25.864
  P     -113.195     -32.217      28.048
  C     -113.907     -29.950      29.102
  O     -113.426     -31.270      29.321
  C     -113.916     -29.181      30.420
  O     -114.784     -29.846      31.367
  C     -112.556     -29.108      31.100
  O     -111.713     -28.131      30.518
  C     -112.959     -28.789      32.530
  O     -113.190     -27.386      32.709
  C     -114.270     -29.568      32.690
  N     -112.570     -31.580      37.061
  C     -112.708     -30.301      36.651
  N     -113.182     -29.846      35.471
  C     -113.562     -30.870      34.689
  C     -113.486     -32.222      34.973
  C     -112.963     -32.572      36.229
  N     -112.799     -33.874      36.639
  N     -113.936     -32.970      33.903
  C     -114.286     -32.085      32.992
  N     -114.082     -30.804      33.423
  O     -113.034     -33.677      28.684
  O     -114.273     -32.175      27.019
  H     -113.944     -27.157      32.132
  H     -113.370     -34.344      28.056
  H     -112.385     -29.542      37.358
  H     -114.681     -32.320      32.011
  H     -115.035     -28.989      33.221
  H     -112.181     -29.090      33.230
  H     -112.072     -30.093      31.082
  H     -114.316     -28.176      30.237
  H     -114.927     -29.996      28.705
  H     -113.262     -29.454      28.370
  H     -112.354     -34.051      37.524
  H     -112.982     -34.620      35.980
  P     -110.603     -28.628      29.475
  C     -108.660     -27.453      30.755
  O     -109.387     -27.588      29.542
  O     -111.267     -28.347      28.046
  O     -110.203     -30.057      29.629
  H     -111.006     -29.046      27.416
  H     -107.888     -26.723      30.629
  H     -108.222     -28.394      31.015
  H     -109.322     -27.141      31.535

 6  7  8  9  10  11  12  13  14  15  25  28  32  33  34  35 0
 6-311+G(2d,p)
 ****
 36  37  40 0
 6-311+G(2d,p)
 ****
 1  2  3  4  5  16  17  18  19  20  21  22  23  24 0
 3-21G
 ****
 26  27  29  30  31  38  39 41  42  43  44  45  46  47  48 0
 3-21G
 ****


