%nproc=1
%NoSave
%Mem=1900MB
#P OB98/GEN NMR

erre ene a

0 1
  C      -29.128     472.416     249.332
  O      -28.758     471.302     250.131
  P      -28.081     471.504     251.577
  C      -29.426     469.668     252.802
  O      -29.214     471.065     252.625
  C      -30.809     469.426     253.407
  O      -31.828     469.858     252.475
  C      -31.122     467.968     253.715
  O      -30.457     467.543     254.899
  C      -32.645     468.008     253.792
  O      -33.063     468.511     255.067
  C      -32.992     469.026     252.681
  N      -33.413     468.385     251.439
  C      -34.760     468.029     251.347
  O      -35.545     468.254     252.273
  N      -35.211     467.447     250.185
  C      -34.378     467.217     249.212
  N      -34.893     466.701     248.056
  C      -32.938     467.529     249.290
  C      -32.534     468.109     250.416
  O      -27.511     472.860     251.814
  O      -27.020     470.319     251.691
  H      -32.686     469.408     255.155
  H      -26.128     470.551     251.331
  H      -32.283     467.313     248.455
  H      -31.490     468.386     250.548
  H      -33.792     469.696     253.026
  H      -33.114     467.024     253.647
  H      -30.810     467.328     252.879
  H      -30.900     470.037     254.319
  H      -35.903     466.673     247.984
  H      -28.662     469.284     253.491
  H      -34.386     466.768     247.181
  H      -29.327     469.160     251.835
  P      -29.813     466.072     254.893
  C      -27.477     467.154     255.199
  O      -28.282     466.267     254.453
  O      -30.508     465.365     253.632
  O      -30.023     465.304     256.159
  H      -31.229     464.778     253.933
  H      -26.429     466.994     254.930
  H      -27.592     466.978     256.274
  H      -27.743     468.192     254.963
  H      -29.558     472.070     248.415
  H      -28.261     473.006     249.119
  H      -29.844     473.011     249.859

 3  4  5  6  7  8  9  10  11  12  13  23  27  28  29  30  32 0
 6-311+G(2d,p)
 ****
 34  35 0
 6-311+G(2d,p)
 ****
 1  2  14  15  16  17  18  19  20  21  22  24  25  26 0
 3-21G
 ****
 31  33  36  37  38  39  40  41  42  43  44  45  46 0
 3-21G
 ****


