%nproc=1
%NoSave
%Mem=1900MB
#P OB98/GEN NMR

erre ene a

0 1
  C       88.012       7.435     979.554
  O       87.659       6.089     979.811
  P       86.496       5.438     978.891
  C       84.387       6.612     979.891
  O       85.164       5.442     979.780
  C       83.020       6.284     980.460
  O       82.232       5.554     979.477
  C       83.050       5.378     981.719
  O       83.302       6.160     982.865
  C       81.660       4.768     981.679
  O       80.679       5.667     982.224
  C       81.440       4.550     980.174
  N       79.752      -0.134     979.270
  C       79.135       0.917     979.908
  N       77.852       0.718     980.332
  N       79.701       2.080     980.117
  C       80.973       2.149     979.670
  C       81.706       1.143     979.020
  C       81.039      -0.097     978.753
  O       81.507      -1.027     978.103
  N       82.975       1.575     978.717
  C       83.003       2.833     979.148
  N       81.809       3.230     979.703
  O       86.917       3.900     978.797
  O       86.349       6.082     977.541
  H       79.792       5.262     982.175
  H       87.391       3.723     977.959
  H       79.251      -0.988     979.127
  H       83.853       3.483     979.051
  H       80.398       4.706     979.885
  H       81.606       3.845     982.278
  H       77.375      -0.156     980.239
  H       83.811       4.601     981.607
  H       77.393       1.477     980.801
  H       82.488       7.215     980.698
  H       84.277       7.073     978.917
  H       84.912       7.343     980.557
  P       83.749       5.398     984.217
  C       81.510       4.101     984.280
  O       82.413       4.945     984.964
  O       84.330       6.571     985.121
  O       84.761       4.322     983.994
  H       85.095       6.244     985.654
  H       80.981       3.477     985.030
  H       82.012       3.425     983.572
  H       80.772       4.703     983.749
  H       88.786       7.736     980.228
  H       87.155       8.061     979.692
  H       88.361       7.526     978.547

 3  4  5  6  7  8  9  10  11  12  23  26  30  31 0
 6-311+G(2d,p)
 ****
 33  35  36  37  38 0
 6-311+G(2d,p)
 ****
 1  2  13  14  15  16  17  18  19  20  21  22  24  25 0
 3-21G
 ****
 27  28  29  32  34  39  40  41  42  43  44  45  46  47  48  49 0
 3-21G
 ****


