%nproc=1
%NoSave
%Mem=1900MB
#P OB98/GEN NMR

erre ene a

0 1
  C     -898.683    -901.475    -456.170
  O     -897.313    -901.254    -455.869
  H     -899.293    -900.914    -455.463
  H     -898.913    -902.543    -456.071
  H     -898.923    -901.138    -457.184
  P     -896.203    -901.797    -456.876
  C     -895.723    -899.982    -458.646
  O     -896.503    -901.123    -458.308
  C     -895.723    -899.772    -460.157
  O     -895.363    -901.008    -460.821
  C     -897.083    -899.379    -460.734
  O     -897.363    -898.024    -460.476
  C     -896.883    -899.727    -462.198
  O     -896.143    -898.689    -462.871
  C     -896.043    -901.025    -462.104
  N     -896.843    -902.237    -462.257
  C     -896.863    -902.814    -463.520
  O     -896.283    -902.315    -464.485
  N     -897.603    -903.970    -463.647
  C     -898.353    -904.536    -462.672
  O     -899.043    -905.547    -462.853
  C     -898.313    -903.870    -461.362
  C     -897.573    -902.782    -461.211
  O     -896.023    -903.281    -456.904
  O     -894.873    -901.051    -456.400
  H     -895.263    -898.666    -462.457
  H     -894.323    -901.660    -455.852
  H     -897.633    -904.380    -464.566
  H     -898.923    -904.312    -460.557
  H     -897.543    -902.266    -460.259
  H     -895.263    -901.028    -462.865
  H     -897.823    -899.839    -462.739
  H     -897.863    -900.033    -460.327
  H     -894.953    -899.026    -460.404
  H     -894.693    -900.129    -458.301
  H     -896.153    -899.109    -458.138
  P     -898.863    -897.490    -460.466
  C     -899.433    -896.606    -458.119
  O     -899.463    -897.728    -458.997
  O     -899.733    -897.987    -461.576
  O     -898.723    -895.891    -460.525
  H     -898.953    -895.568    -461.419
  H     -899.856    -896.880    -457.175
  H     -900.000    -895.805    -458.545
  H     -898.420    -896.290    -457.978

 6  7  8  9  10  11  12  13  14  15  16  26  31  32  33  34  35 0
 6-311+G(2d,p)
 ****
 36  37 0
 6-311+G(2d,p)
 ****
 1  2  3  4  5  17  18  19  20  21  22  23  24  25 0
 3-21G
 ****
 27  28  29  30  38  39  40  41  42  43  44  45 0
 3-21G
 ****


