%nproc=1
%NoSave
%Mem=1900MB
#P OB98/GEN NMR

erre ene a

0 1
  C      135.821    -197.959    -516.058
  O      134.791    -198.142    -517.012
  P      134.772    -199.528    -517.827
  C      134.744    -198.363    -520.157
  O      135.445    -199.210    -519.244
  C      135.703    -197.350    -520.791
  O      136.479    -196.701    -519.762
  C      136.712    -197.963    -521.735
  O      136.114    -198.257    -522.986
  C      137.770    -196.870    -521.801
  O      137.437    -195.890    -522.802
  C      137.702    -196.256    -520.384
  N      138.861    -196.580    -519.571
  C      139.828    -195.570    -519.443
  O      139.657    -194.492    -520.018
  N      140.953    -195.820    -518.708
  C      141.107    -196.986    -518.148
  N      142.248    -197.179    -517.430
  C      140.141    -198.084    -518.284
  C      139.046    -197.825    -519.001
  O      133.225    -199.724    -518.182
  O      135.335    -200.694    -517.083
  H      137.519    -196.350    -523.663
  H      133.009    -200.670    -518.296
  H      140.311    -199.036    -517.793
  H      138.275    -198.564    -519.153
  H      137.631    -195.155    -520.449
  H      138.753    -197.265    -522.056
  H      137.153    -198.877    -521.304
  H      135.106    -196.588    -521.298
  H      142.903    -196.414    -517.363
  H      133.961    -197.823    -519.621
  H      142.451    -198.041    -516.939
  H      134.271    -198.991    -520.930
  P      135.909    -199.796    -523.372
  C      137.484    -199.338    -525.347
  O      137.199    -200.177    -524.241
  O      134.756    -199.720    -524.490
  O      135.556    -200.737    -522.268
  H      134.479    -200.624    -524.741
  H      138.453    -199.604    -525.759
  H      137.499    -198.288    -525.040
  H      136.720    -199.484    -526.126
  H      135.712    -197.001    -515.595
  H      136.772    -198.014    -516.545
  H      135.757    -198.724    -515.313

 3  4  5  6  7  8  9  10  11  12  13  21  23  27  28  29  30  32 0
 6-311+G(2d,p)
 ****
 34  35 0
 6-311+G(2d,p)
 ****
 1  2  14  15  16  17  18  19  20  22  24  25  26 0
 3-21G
 ****
 31  33  36  37  38  39  40  41  42  43  44  45  46 0
 3-21G
 ****


