%nproc=1
%NoSave
%Mem=1900MB
#P OB98/GEN NMR

erre ene a

0 1
  C     -106.554      74.837     349.695
  O     -106.628      75.332     351.033
  P     -107.916      76.024     351.673
  C     -106.589      78.010     352.763
  O     -107.444      76.892     352.935
  C     -105.793      78.370     354.037
  O     -104.688      77.445     354.193
  C     -105.179      79.761     353.913
  O     -105.956      80.916     354.215
  C     -103.873      79.679     354.691
  O     -104.001      80.117     356.041
  C     -103.530      78.186     354.643
  N      -98.443      77.752     354.257
  C      -99.206      78.165     355.339
  N      -98.542      78.558     356.435
  N     -100.517      78.198     355.322
  C     -101.057      77.861     354.132
  C     -100.410      77.465     352.982
  C      -98.960      77.364     353.023
  O      -98.241      76.997     352.104
  N     -101.286      77.217     351.964
  C     -102.475      77.501     352.480
  N     -102.386      77.894     353.800
  O     -109.102      75.140     351.862
  O     -108.314      77.146     350.582
  H     -104.744      79.641     356.450
  H     -109.293      77.228     350.603
  H      -97.441      77.718     354.324
  H     -103.410      77.432     351.946
  H     -103.288      77.800     355.641
  H     -103.110      80.321     354.228
  H      -97.540      78.668     356.464
  H     -104.891      79.886     352.863
  H      -99.078      79.059     357.142
  H     -106.422      78.248     354.930
  H     -107.218      78.848     352.463
  H     -105.890      77.823     351.940
  P     -105.783      82.363     353.558
  C     -105.233      83.708     355.672
  O     -106.193      83.457     354.655
  O     -106.987      82.459     352.504
  O     -104.470      82.604     352.884
  H     -106.831      83.180     351.863
  H     -105.738      84.215     356.513
  H     -104.446      84.353     355.287
  H     -104.793      82.773     356.035
  H     -105.583      74.423     349.521
  H     -106.728      75.639     349.008
  H     -107.295      74.079     349.554

 3  4  5  6  7  8  9  10  11  12  23  26  30  31 0
 6-311+G(2d,p)
 ****
 33  35  36  37  38 0
 6-311+G(2d,p)
 ****
 1  2  13  14  15  16  17  18  19  20  21  22  24  25 0
 3-21G
 ****
 27  28  29  32  34  39  40  41  42  43  44  45  46  47  48  49 0
 3-21G
 ****


