%nproc=1
%NoSave
%Mem=1900MB
#P OB98/GEN NMR

erre ene a

0 1
  C     -170.205      35.235    -223.278
  O     -169.722      34.534    -224.422
  P     -169.765      35.293    -225.834
  C     -172.340      35.164    -226.310
  O     -171.216      35.960    -225.993
  C     -173.635      36.001    -226.289
  O     -174.763      35.105    -226.507
  C     -173.929      36.712    -224.970
  O     -174.882      37.757    -225.213
  C     -174.585      35.609    -224.161
  O     -175.316      36.129    -223.056
  C     -175.422      34.869    -225.233
  N     -175.541      33.415    -224.990
  C     -176.738      32.930    -224.456
  O     -177.703      33.634    -224.178
  N     -176.786      31.579    -224.219
  C     -175.797      30.685    -224.493
  O     -175.856      29.501    -224.174
  C     -174.615      31.227    -225.179
  C     -174.538      32.542    -225.384
  O     -169.758      34.106    -226.902
  O     -168.625      36.241    -226.041
  H     -176.110      36.581    -223.430
  H     -168.881      34.033    -227.324
  H     -177.617      31.224    -223.772
  H     -173.838      30.530    -225.471
  H     -173.665      32.968    -225.871
  H     -176.444      35.276    -225.287
  H     -173.822      34.943    -223.759
  H     -173.049      37.120    -224.466
  H     -173.613      36.717    -227.117
  H     -172.417      34.328    -225.607
  H     -172.210      34.725    -227.307
  P     -174.351      39.273    -225.209
  C     -174.652      39.902    -222.732
  O     -173.735      39.529    -223.747
  O     -175.315      40.301    -225.696
  O     -173.038      39.194    -226.130
  H     -172.804      40.085    -226.442
  H     -174.266      39.549    -221.766
  H     -175.640      39.460    -222.899
  H     -174.735      40.990    -222.701
  H     -170.116      34.611    -222.413
  H     -171.232      35.495    -223.426
  H     -169.629      36.126    -223.136

 3  4  5  6  7  8  9  10  11  12  13  23  28  29  30  31  32 0
 6-311+G(2d,p)
 ****
 33  34 0
 6-311+G(2d,p)
 ****
 1  2  14  15  16  17  18  19  20  21  22  24  25  26  27 0
 3-21G
 ****
 35  36  37  38  39  40  41  42  43  44  45 0
 3-21G
 ****


