%nproc=1
%NoSave
%Mem=1900MB
#P OB98/GEN NMR

erre ene a

0 1
  C      -73.946    -148.584     210.793
  O      -73.776    -147.759     209.639
  P      -72.479    -147.737     208.710
  C      -71.565    -145.313     209.175
  O      -71.420    -146.719     209.341
  C      -70.958    -144.550     210.367
  O      -70.995    -143.121     210.074
  C      -71.745    -144.767     211.668
  O      -70.917    -144.953     212.814
  C      -72.699    -143.582     211.685
  O      -73.223    -143.301     212.976
  C      -71.851    -142.480     211.047
  N      -74.186    -137.973     211.614
  C      -73.600    -138.781     212.571
  N      -73.651    -138.346     213.845
  N      -73.026    -139.923     212.301
  C      -73.112    -140.279     210.997
  C      -73.679    -139.572     209.962
  C      -74.268    -138.282     210.261
  O      -74.781    -137.522     209.457
  N      -73.568    -140.250     208.773
  C      -72.950    -141.371     209.092
  N      -72.648    -141.432     210.435
  O      -72.731    -147.623     207.242
  O      -71.795    -149.171     208.973
  H      -73.689    -142.450     212.928
  H      -71.355    -149.430     208.139
  H      -74.589    -137.092     211.874
  H      -72.687    -142.161     208.397
  H      -71.213    -141.981     211.781
  H      -73.551    -143.832     211.039
  H      -74.183    -137.543     214.143
  H      -72.324    -145.696     211.623
  H      -73.422    -139.041     214.561
  H      -69.907    -144.849     210.478
  H      -72.645    -145.129     209.129
  H      -71.126    -144.986     208.231
  P      -70.466    -146.318     213.508
  C      -72.346    -146.403     215.250
  O      -71.770    -147.031     214.123
  O      -69.652    -145.874     214.809
  O      -69.621    -147.203     212.648
  H      -68.730    -146.196     214.749
  H      -73.035    -147.108     215.722
  H      -72.913    -145.519     214.929
  H      -71.577    -146.110     215.972
  H      -74.906    -148.398     211.226
  H      -73.182    -148.359     211.508
  H      -73.877    -149.613     210.509

 3  4  5  6  7  8  9  10  11  12  23  26  30  31 0
 6-311+G(2d,p)
 ****
 33  35  36  37  38 0
 6-311+G(2d,p)
 ****
 1  2  13  14  15  16  17  18  19  20  21  22  24  25 0
 3-21G
 ****
 27  28  29  32  34  39  40  41  42  43  44  45  46  47  48  49 0
 3-21G
 ****


