%nproc=1
%NoSave
%Mem=1900MB
#P OB98/GEN NMR

erre ene a

0 1
  C     -396.305      28.934     235.012
  O     -396.505      28.585     236.383
  P     -396.198      27.076     236.833
  C     -395.516      27.568     239.295
  O     -396.434      26.944     238.412
  C     -396.246      28.498     240.276
  O     -396.631      29.740     239.625
  C     -397.538      27.916     240.829
  O     -397.284      27.041     241.916
  C     -398.244      29.185     241.316
  O     -397.707      29.588     242.584
  C     -397.865      30.198     240.238
  N     -402.214      32.561     238.874
  C     -401.483      32.589     240.015
  N     -400.337      31.931     240.307
  C     -399.961      31.161     239.258
  C     -400.604      31.023     238.049
  C     -401.792      31.764     237.867
  N     -402.518      31.707     236.697
  N     -399.931      30.129     237.236
  C     -398.876      29.763     237.941
  N     -398.863      30.356     239.184
  O     -394.605      26.981     236.703
  O     -396.883      26.043     235.996
  H     -398.003      30.512     242.736
  H     -394.350      26.076     236.404
  H     -401.871      33.251     240.783
  H     -398.111      29.081     237.615
  H     -397.673      31.205     240.651
  H     -399.318      29.043     241.450
  H     -398.135      27.445     240.035
  H     -395.556      28.734     241.095
  H     -394.759      28.137     238.724
  H     -403.349      32.289     236.632
  H     -402.202      31.135     235.929
  H     -394.966      26.790     239.841
  P     -398.183      25.723     242.014
  C     -396.228      23.990     241.950
  O     -397.248      24.618     242.719
  O     -398.268      25.237     240.491
  O     -399.527      25.921     242.626
  H     -399.125      24.772     240.344
  H     -395.520      23.516     242.636
  H     -395.693      24.732     241.349
  H     -396.659      23.221     241.299
  H     -396.550      29.966     234.867
  H     -396.934      28.328     234.394
  H     -395.281      28.770     234.748

 3  4  5  6  7  8  9  10  11  12  22  25  29  30  31  32 0
 6-311+G(2d,p)
 ****
 33  36  37 0
 6-311+G(2d,p)
 ****
 1  2  13  14  15  16  17  18  19  20  21  23  24  26 0
 3-21G
 ****
 27  28  34  35  38  39  40  41  42  43  44  45  46  47  48 0
 3-21G
 ****


