%nproc=1
%NoSave
%Mem=1900MB
#P OB98/GEN NMR

erre ene a

0 1
  C     -329.158     296.007    1130.803
  O     -327.832     296.309    1130.402
  H     -329.314     294.930    1130.710
  H     -329.878     296.522    1130.159
  H     -329.318     296.296    1131.844
  P     -327.365     297.840    1130.383
  C     -326.107     297.574    1132.620
  O     -326.008     297.915    1131.247
  C     -324.772     296.990    1133.114
  O     -324.695     295.621    1132.659
  C     -323.554     297.752    1132.560
  O     -322.650     298.180    1133.575
  C     -323.016     296.818    1131.483
  O     -321.635     296.961    1131.210
  C     -323.430     295.430    1131.993
  N     -323.541     294.429    1130.940
  C     -322.426     293.619    1130.694
  O     -321.367     293.677    1131.307
  N     -322.573     292.687    1129.679
  C     -323.685     292.520    1128.913
  O     -323.758     291.670    1128.028
  C     -324.817     293.411    1129.199
  C     -324.698     294.317    1130.183
  O     -328.407     298.840    1130.768
  O     -326.849     298.068    1128.883
  H     -321.306     296.110    1130.855
  H     -327.527     298.551    1128.379
  H     -321.779     292.101    1129.507
  H     -325.714     293.307    1128.608
  H     -325.518     294.981    1130.427
  H     -322.708     295.059    1132.729
  H     -323.553     297.030    1130.543
  H     -323.868     298.699    1132.086
  H     -324.775     296.978    1134.211
  H     -326.899     296.840    1132.730
  H     -326.358     298.460    1133.213
  P     -321.684     299.450    1133.460
  C     -323.161     301.204    1134.730
  O     -321.971     300.415    1134.704
  O     -321.601     300.087    1132.103
  O     -320.222     298.826    1133.796
  H     -319.581     299.341    1133.266
  H     -323.186     301.783    1135.630
  H     -324.016     300.561    1134.696
  H     -323.173     301.859    1133.884

 6  7  8  9  10  11  12  13  14  15  16  26  31  32  33  34  35 0
 6-311+G(2d,p)
 ****
 36  37 0
 6-311+G(2d,p)
 ****
 1  2  3  4  5  17  18  19  20  21  22  23  24  25 0
 3-21G
 ****
 27  28  29  30  38  39  40  41  42  43  44  45 0
 3-21G
 ****


