%nproc=1
%NoSave
%Mem=1900MB
#P OB98/GEN NMR

erre ene a

0 1
  C      -13.012    -324.331      22.140
  O      -13.563    -323.059      21.868
  H      -12.967    -324.471      23.224
  H      -11.998    -324.395      21.734
  H      -13.637    -325.117      21.708
  P      -13.729    -322.670      20.321
  C      -15.143    -323.773      18.430
  O      -15.038    -323.441      19.804
  C      -16.449    -324.530      18.160
  O      -16.467    -325.738      18.983
  C      -17.717    -323.735      18.519
  O      -18.778    -324.188      17.663
  C      -17.981    -324.200      19.945
  O      -19.278    -323.844      20.362
  C      -17.666    -325.685      19.790
  N      -19.954    -327.912      23.788
  C      -20.450    -327.380      22.648
  N      -19.778    -326.815      21.625
  C      -18.450    -326.854      21.843
  C      -17.797    -327.376      22.950
  C      -18.611    -327.923      23.961
  N      -18.109    -328.464      25.125
  N      -16.426    -327.232      22.819
  C      -16.260    -326.635      21.653
  N      -17.454    -326.380      21.038
  O      -12.523    -323.450      19.614
  O      -13.701    -321.207      20.019
  H      -19.510    -324.286      21.205
  H      -11.755    -322.856      19.514
  H      -21.532    -327.402      22.551
  H      -15.306    -326.358      21.220
  H      -18.455    -326.214      19.244
  H      -17.282    -323.726      20.643
  H      -17.597    -322.655      18.413
  H      -16.463    -324.859      17.115
  H      -14.287    -324.399      18.154
  H      -15.124    -322.859      17.828
  H      -18.755    -328.820      25.804
  H      -17.108    -328.460      25.275
  P      -19.590    -323.111      16.785
  C      -18.425    -322.035      14.699
  O      -19.052    -323.174      15.275
  O      -18.966    -321.726      17.298
  O      -21.072    -323.120      16.957
  H      -19.627    -321.014      17.199
  H      -18.133    -322.259      13.694
  H      -17.560    -321.776      15.273
  H      -19.111    -321.213      14.697

 6  7  8  9  10  11  12  13  14  15  25  28  32  33  34  35 0
 6-311+G(2d,p)
 ****
 36  37  40 0
 6-311+G(2d,p)
 ****
 1  2  3  4  5  16  17  18  19  20  21  22  23  24 0
 3-21G
 ****
 26  27  29  30  31  38  39 41  42  43  44  45  46  47  48 0
 3-21G
 ****


