%nproc=1
%NoSave
%Mem=1900MB
#P OB98/GEN NMR

erre ene a

0 1
  C     -217.256     368.068      63.837
  O     -218.341     367.157      63.828
  H     -216.352     367.534      64.139
  H     -217.448     368.874      64.551
  H     -217.104     368.479      62.833
  P     -219.763     367.742      63.381
  C     -220.912     367.769      65.701
  O     -220.796     367.122      64.442
  C     -222.376     367.847      66.130
  O     -223.129     368.645      65.197
  C     -223.087     366.500      66.196
  O     -222.787     365.827      67.407
  C     -224.540     366.942      66.142
  O     -224.961     367.396      67.443
  C     -224.490     368.135      65.164
  N     -228.196     368.276      61.611
  C     -228.218     368.513      62.939
  N     -227.207     368.414      63.832
  C     -226.070     368.029      63.220
  C     -225.898     367.750      61.871
  C     -227.024     367.901      61.045
  N     -226.999     367.668      59.685
  N     -224.594     367.378      61.612
  C     -223.982     367.482      62.773
  N     -224.841     367.835      63.787
  O     -220.111     367.574      61.940
  O     -219.639     369.261      63.874
  H     -225.846     367.798      67.342
  H     -219.170     369.304      64.728
  H     -229.180     368.826      63.344
  H     -222.920     367.328      62.936
  H     -225.155     368.947      65.482
  H     -225.211     366.133      65.852
  H     -222.865     365.888      65.314
  H     -222.417     368.359      67.101
  H     -220.481     368.773      65.664
  H     -227.882     367.633      59.200
  H     -226.157     367.268      59.288
  H     -220.339     367.176      66.426
  P     -222.376     364.280      67.400
  C     -223.991     363.681      69.316
  O     -222.637     363.735      68.892
  O     -221.021     363.983      66.861
  O     -223.528     363.558      66.549
  H     -223.150     362.848      65.999
  H     -224.037     363.305      70.317
  H     -224.543     363.034      68.667
  H     -224.414     364.663      69.284

 6  7  8  9  10  11  12  13  14  15  25  28  32  33  34  35 0
 6-311+G(2d,p)
 ****
 36  39  40 0
 6-311+G(2d,p)
 ****
 1  2  3  4  5  16  17  18  19  20  21  22  23  24 0
 3-21G
 ****
 26  27  29  30  31  37  38  41  42  43  44  45  46  47 0
 3-21G
 ****
 48 0
 3-21G
 ****


