%nproc=1
%NoSave
%Mem=1900MB
#P OB98/GEN NMR

erre ene a

0 1
  C     -113.053    -208.731     -59.701
  O     -114.136    -208.012     -60.257
  H     -112.544    -209.277     -60.499
  H     -113.414    -209.448     -58.959
  H     -112.344    -208.042     -59.234
  P     -115.077    -207.224     -59.219
  C     -114.001    -205.015     -60.099
  O     -114.295    -205.840     -58.983
  C     -115.184    -204.096     -60.386
  O     -115.486    -203.280     -59.232
  C     -114.947    -203.113     -61.527
  O     -115.090    -203.707     -62.806
  C     -116.043    -202.101     -61.248
  O     -117.312    -202.636     -61.664
  C     -115.965    -201.992     -59.708
  N     -115.083    -200.916     -59.252
  C     -115.330    -199.639     -59.769
  O     -116.240    -199.455     -60.576
  N     -114.515    -198.600     -59.388
  C     -113.545    -198.814     -58.553
  N     -112.760    -197.752     -58.220
  C     -113.260    -200.137     -57.970
  C     -114.056    -201.130     -58.358
  O     -114.842    -207.997     -57.837
  O     -116.509    -207.082     -59.610
  H     -117.965    -201.918     -61.575
  H     -115.285    -207.508     -57.101
  H     -112.432    -200.267     -57.287
  H     -113.904    -202.132     -57.972
  H     -116.959    -201.835     -59.276
  H     -115.902    -201.158     -61.779
  H     -113.977    -202.613     -61.434
  H     -116.063    -204.726     -60.579
  H     -112.941    -196.871     -58.683
  H     -113.805    -205.660     -60.963
  H     -111.882    -197.856     -57.726
  H     -113.112    -204.411     -59.896
  P     -114.411    -202.959     -64.056
  C     -112.669    -204.864     -64.349
  O     -112.894    -203.476     -64.145
  O     -114.258    -201.456     -63.535
  O     -115.188    -203.032     -65.334
  H     -114.443    -200.814     -64.246
  H     -111.616    -205.053     -64.386
  H     -113.118    -205.166     -65.272
  H     -113.103    -205.418     -63.543

 6  7  8  9  10  11  12  13  14  15  16  26  30  31  32  33  35 0
 6-311+G(2d,p)
 ****
 37  38 0
 6-311+G(2d,p)
 ****
 1  2  3  4  5  17  18  19  20  21  22  23  24  25 0
 3-21G
 ****
 27  28  29  34  36  39  40  41  42  43  44  45  46 0
 3-21G
 ****


