%nproc=1
%NoSave
%Mem=1900MB
#P OB98/GEN NMR

erre ene a

0 1
  C     -315.334     143.478    -117.816
  O     -315.920     142.631    -116.849
  H     -315.901     144.410    -117.895
  H     -314.310     143.713    -117.508
  H     -315.302     142.978    -118.790
  P     -317.440     142.187    -117.121
  C     -317.177     139.612    -117.197
  O     -317.624     140.736    -116.451
  C     -317.269     138.347    -116.344
  O     -316.403     138.517    -115.189
  C     -318.690     138.032    -115.839
  O     -319.033     136.668    -116.116
  C     -318.597     138.213    -114.334
  O     -319.424     137.305    -113.615
  C     -317.114     137.979    -114.062
  N     -317.482     137.801    -108.980
  C     -317.690     136.856    -109.922
  N     -317.482     136.940    -111.252
  C     -316.973     138.143    -111.579
  C     -316.687     139.194    -110.725
  C     -316.982     138.999    -109.367
  N     -316.823     139.979    -108.411
  N     -316.182     140.275    -111.429
  C     -316.206     139.895    -112.690
  N     -316.691     138.619    -112.834
  O     -317.456     141.883    -118.695
  O     -318.459     143.208    -116.749
  H     -319.099     136.405    -113.800
  H     -318.090     142.487    -119.126
  H     -318.085     135.910    -109.563
  H     -315.931     140.512    -113.540
  H     -316.874     136.909    -113.993
  H     -318.895     139.237    -114.079
  H     -319.446     138.690    -116.275
  H     -316.873     137.503    -116.924
  H     -316.134     139.763    -117.501
  H     -317.167     139.795    -107.485
  H     -316.557     140.908    -108.711
  H     -317.794     139.511    -118.096
  P     -320.015     136.423    -117.370
  C     -318.363     136.672    -119.362
  O     -319.146     135.788    -118.564
  O     -320.344     137.907    -117.868
  O     -321.257     135.677    -117.019
  H     -321.310     138.052    -117.874
  H     -317.843     136.111    -120.111
  H     -317.655     137.180    -118.741
  H     -319.003     137.388    -119.833

 6  7  8  9  10  11  12  13  14  15  25  28  32  33  34  35 0
 6-311+G(2d,p)
 ****
 36  39  40 0
 6-311+G(2d,p)
 ****
 1  2  3  4  5  16  17  18  19  20  21  22  23  24 0
 3-21G
 ****
 26  27  29  30  31  37  38  41  42  43  44  45  46  47  48 0
 3-21G
 ****


