%nproc=1
%NoSave
%Mem=1900MB
#P OB98/GEN NMR

erre ene a

0 1
  C       19.414    -442.291     490.895
  O       18.199    -441.606     491.118
  H       20.105    -441.624     490.373
  H       19.228    -443.164     490.264
  H       19.868    -442.603     491.839
  P       17.190    -442.230     492.197
  C       18.369    -441.169     494.253
  O       18.014    -442.363     493.572
  C       18.645    -441.457     495.729
  O       19.755    -442.401     495.818
  C       19.022    -440.214     496.555
  O       18.461    -440.344     497.866
  C       20.531    -440.332     496.670
  O       21.044    -439.626     497.792
  C       20.691    -441.846     496.762
  N       25.389    -441.541     498.503
  C       24.188    -441.200     499.097
  N       24.245    -440.633     500.318
  N       23.025    -441.396     498.532
  C       23.109    -441.989     497.315
  C       24.230    -442.371     496.622
  C       25.516    -442.133     497.247
  O       26.612    -442.392     496.768
  N       23.897    -442.881     495.390
  C       22.577    -442.786     495.336
  N       22.056    -442.253     496.481
  O       17.043    -443.745     491.699
  O       15.870    -441.549     492.309
  H       22.020    -439.605     497.720
  H       16.252    -443.832     491.136
  H       26.257    -441.355     498.973
  H       21.967    -443.073     494.493
  H       20.442    -442.234     497.760
  H       21.007    -439.942     495.761
  H       25.098    -440.479     500.829
  H       18.699    -439.269     496.106
  H       23.369    -440.415     500.781
  H       17.768    -441.957     496.159
  H       17.542    -440.455     494.178
  H       19.253    -440.732     493.779
  P       17.798    -439.044     498.533
  C       15.479    -439.367     497.394
  O       16.611    -438.532     497.583
  O       18.928    -437.925     498.347
  O       17.431    -439.223     499.970
  H       18.917    -437.317     499.108
  H       14.785    -438.884     496.739
  H       15.010    -439.551     498.338
  H       15.789    -440.296     496.963

 6  7  8  9  10  11  12  13  14  15  26  29  33  34 0
 6-311+G(2d,p)
 ****
 36  38  39  40  41 0
 6-311+G(2d,p)
 ****
 1  2  3  4  5  16  17  18  19  20  21  22  23  24  25 0
 3-21G
 ****
 27  28  30  31  32  35  37  42  43  44  45  46  47 0
 3-21G
 ****
 48  49 0
 3-21G
 ****


