%nproc=1
%NoSave
%Mem=1900MB
#P OB98/GEN NMR

erre ene a

0 1
  C      -21.174     -58.550     136.745
  O      -20.628     -59.061     137.940
  P      -19.580     -58.214     138.805
  C      -17.833     -60.108     138.796
  O      -18.667     -59.277     139.595
  C      -17.844     -61.544     139.331
  O      -17.104     -62.395     138.400
  C      -17.182     -61.672     140.718
  O      -17.988     -62.325     141.699
  C      -15.862     -62.353     140.397
  O      -15.267     -63.005     141.504
  C      -16.248     -63.231     139.202
  N      -15.084     -63.710     138.460
  C      -14.368     -64.766     139.016
  O      -14.656     -65.320     140.073
  N      -13.241     -65.146     138.342
  C      -12.706     -64.518     137.258
  O      -11.639     -64.851     136.763
  C      -13.486     -63.384     136.739
  C      -14.632     -63.049     137.336
  O      -20.173     -57.153     139.669
  O      -18.562     -57.661     137.699
  H      -14.343     -63.209     141.270
  H      -18.105     -58.347     137.183
  H      -12.713     -65.910     138.734
  H      -13.080     -62.858     135.885
  H      -15.228     -62.218     136.975
  H      -16.836     -64.095     139.514
  H      -15.158     -61.579     140.068
  H      -16.986     -60.684     141.151
  H      -18.884     -61.883     139.357
  H      -16.812     -59.721     138.831
  H      -18.163     -60.071     137.752
  P      -18.438     -61.683     143.094
  C      -16.986     -63.258     144.568
  O      -18.279     -62.798     144.230
  O      -19.755     -60.983     143.076
  O      -17.257     -60.654     143.428
  H      -17.609     -59.915     143.959
  H      -17.064     -64.286     144.929
  H      -16.581     -62.637     145.370
  H      -16.312     -63.234     143.708
  H      -21.847     -59.268     136.325
  H      -20.386     -58.351     136.049
  H      -21.703     -57.644     136.954

 3  4  5  6  7  8  9  10  11  12  13  23  28  29  30  31  32 0
 6-311+G(2d,p)
 ****
 33  34 0
 6-311+G(2d,p)
 ****
 1  2  14  15  16  17  18  19  20  21  22  24  25  26  27 0
 3-21G
 ****
 35  36  37  38  39  40  41  42  43  44  45 0
 3-21G
 ****


