%nproc=1
%NoSave
%Mem=1900MB
#P OB98/GEN NMR

erre ene a

0 1
  C      -79.327      15.080      14.964
  O      -80.281      16.120      14.952
  P      -81.849      15.869      14.776
  C      -83.992      17.248      15.284
  O      -82.634      16.987      15.624
  C      -84.537      18.527      15.938
  O      -84.396      18.432      17.370
  C      -83.707      19.737      15.500
  O      -83.981      20.382      14.272
  C      -83.677      20.655      16.715
  O      -84.642      21.705      16.634
  C      -84.002      19.716      17.878
  N      -82.428      20.260      22.665
  C      -83.715      20.290      22.165
  N      -84.673      20.704      23.022
  N      -84.020      19.967      20.935
  C      -82.943      19.667      20.172
  C      -81.626      19.590      20.559
  C      -81.307      19.909      21.930
  O      -80.170      19.976      22.391
  N      -80.797      19.328      19.499
  C      -81.606      19.286      18.461
  N      -82.913      19.526      18.814
  O      -82.317      14.452      14.854
  O      -82.081      16.371      13.260
  H      -84.348      22.330      15.947
  H      -82.779      15.810      12.870
  H      -82.243      20.596      23.602
  H      -81.296      19.121      17.436
  H      -84.854      20.097      18.455
  H      -82.699      21.143      16.807
  H      -84.454      21.097      23.926
  H      -82.673      19.386      15.388
  H      -85.593      20.900      22.645
  H      -85.608      18.637      15.751
  H      -84.579      16.377      15.590
  H      -84.085      17.333      14.199
  P      -83.042      21.437      13.523
  C      -82.494      22.137      11.125
  O      -83.211      21.232      11.945
  O      -81.555      20.905      13.794
  O      -83.181      22.848      13.992
  H      -80.920      21.638      13.691
  H      -82.909      22.109      10.115
  H      -81.441      21.840      11.086
  H      -82.568      23.158      11.512
  H      -78.349      15.494      15.094
  H      -79.368      14.548      14.037
  H      -79.540      14.409      15.770

 3  4  5  6  7  8  9  10  11  12  23  26  30  31 0
 6-311+G(2d,p)
 ****
 33  35  36  37  38 0
 6-311+G(2d,p)
 ****
 1  2  13  14  15  16  17  18  19  20  21  22  24  25 0
 3-21G
 ****
 27  28  29  32  34  39  40  41  42  43  44  45  46  47  48  49 0
 3-21G
 ****


