%nproc=1
%NoSave
%Mem=1900MB
#P OB98/GEN NMR

erre ene a

0 1
  C       84.575     209.585     -19.873
  O       85.421     208.442     -20.017
  P       86.764     208.641     -20.873
  C       88.351     208.050     -18.912
  O       87.921     207.735     -20.228
  C       87.452     207.408     -17.847
  O       87.394     205.967     -18.018
  C       87.914     207.677     -16.415
  O       86.744     207.770     -15.598
  C       88.660     206.408     -16.051
  O       88.757     206.252     -14.638
  C       87.801     205.357     -16.775
  N       88.502     204.095     -16.995
  C       88.798     203.327     -15.867
  O       88.533     203.752     -14.740
  N       89.422     202.117     -16.033
  C       89.771     201.732     -17.220
  N       90.391     200.524     -17.320
  C       89.533     202.536     -18.435
  C       88.898     203.691     -18.248
  O       87.210     210.137     -20.521
  O       86.566     208.464     -22.344
  H       89.242     205.418     -14.457
  H       87.397     210.631     -21.340
  H       89.860     202.184     -19.402
  H       88.676     204.349     -19.076
  H       86.893     205.140     -16.198
  H       89.673     206.431     -16.471
  H       88.510     208.588     -16.311
  H       86.435     207.794     -17.986
  H       90.530     199.998     -16.465
  H       88.351     209.133     -18.772
  H       90.706     200.128     -18.193
  H       89.390     207.729     -18.792
  P       86.689     208.913     -14.476
  C       84.251     209.646     -14.808
  O       85.160     208.937     -13.990
  O       86.757     210.244     -15.370
  O       87.734     208.919     -13.413
  H       86.803     211.026     -14.792
  H       83.238     209.478     -14.433
  H       84.308     209.292     -15.841
  H       84.466     210.718     -14.766
  H       83.719     209.324     -19.286
  H       84.257     209.917     -20.839
  H       85.116     210.370     -19.386

 3  4  5  6  7  8  9  10  11  12  13  21  23  27  28  29  30  32 0
 6-311+G(2d,p)
 ****
 34  35 0
 6-311+G(2d,p)
 ****
 1  2  14  15  16  17  18  19  20  22  24  25  26 0
 3-21G
 ****
 31  33  36  37  38  39  40  41  42  43  44  45  46 0
 3-21G
 ****


