%nproc=1
%NoSave
%Mem=1900MB
#P OB98/GEN NMR

erre ene a

0 1
  C     -111.275    -888.530     573.768
  O     -112.304    -889.190     573.072
  P     -112.561    -890.760     573.160
  C     -110.376    -891.430     571.931
  O     -111.790    -891.480     571.928
  C     -109.732    -892.250     570.798
  O     -110.026    -893.660     570.992
  C     -110.376    -891.860     569.456
  O     -109.915    -890.730     568.749
  C     -110.401    -893.150     568.654
  O     -109.311    -893.260     567.730
  C     -110.301    -894.240     569.726
  N     -112.537    -898.650     568.555
  C     -111.217    -898.310     568.499
  N     -110.410    -899.220     567.878
  N     -110.711    -897.210     568.993
  C     -111.660    -896.350     569.486
  C     -113.009    -896.600     569.622
  C     -113.549    -897.840     569.103
  O     -114.732    -898.150     569.075
  N     -113.684    -895.490     570.106
  C     -112.736    -894.600     570.247
  N     -111.504    -895.050     569.852
  O     -113.965    -891.200     573.483
  O     -111.637    -891.160     574.417
  H     -108.486    -893.220     568.240
  H     -112.089    -891.890     574.900
  H     -112.877    -899.490     568.091
  H     -112.895    -893.580     570.580
  H     -109.482    -894.920     569.491
  H     -111.327    -893.200     568.038
  H     -110.765    -900.000     567.364
  H     -111.423    -891.630     569.666
  H     -109.455    -898.910     567.653
  H     -108.638    -892.170     570.813
  H     -110.030    -891.800     572.904
  H     -110.036    -890.390     571.862
  P     -110.759    -889.420     568.378
  C     -112.296    -890.340     566.546
  O     -111.185    -889.520     566.833
  O     -109.689    -888.240     568.374
  O     -111.874    -889.110     569.327
  H     -110.151    -887.380     568.508
  H     -112.319    -890.580     565.496
  H     -113.227    -889.810     566.797
  H     -112.252    -891.260     567.127
  H     -111.309    -887.484     573.546
  H     -110.329    -888.928     573.467
  H     -111.405    -888.676     574.820

 3  4  5  6  7  8  9  10  11  12  23  26  30  31 0
 6-311+G(2d,p)
 ****
 33  35  36  37  38 0
 6-311+G(2d,p)
 ****
 1  2  13  14  15  16  17  18  19  20  21  22  24  25 0
 3-21G
 ****
 27  28  29  32  34  39  40  41  42  43  44  45  46  47  48  49 0
 3-21G
 ****


