%nproc=1
%NoSave
%Mem=1900MB
#P OB98/GEN NMR

erre ene a

0 1
  C      -95.429     709.015     429.567
  O      -94.528     709.072     430.665
  H      -95.496     710.011     429.122
  H      -96.424     708.713     429.902
  H      -95.054     708.322     428.817
  P      -94.470     707.813     431.657
  C      -95.633     709.062     433.593
  O      -94.439     708.440     433.139
  C      -95.899     708.770     435.071
  O      -97.112     709.417     435.508
  C      -96.095     707.294     435.383
  O      -94.953     706.484     435.197
  C      -96.760     707.346     436.753
  O      -95.806     707.504     437.808
  C      -97.620     708.630     436.625
  N      -99.034     708.331     436.462
  C      -99.840     708.575     437.578
  O      -99.399     708.970     438.660
  N     -101.165     708.281     437.436
  C     -101.757     707.759     436.313
  O     -102.958     707.509     436.248
  C     -100.861     707.501     435.173
  C      -99.559     707.799     435.299
  O      -93.368     706.825     431.389
  O      -95.935     707.175     431.563
  H      -95.154     708.165     437.507
  H      -95.956     706.258     431.933
  H     -101.764     708.460     438.233
  H     -101.291     707.080     434.281
  H      -98.878     707.625     434.477
  H      -97.499     709.268     437.516
  H      -97.340     706.450     436.961
  H      -96.861     706.892     434.692
  H      -95.060     709.188     435.655
  H      -96.468     708.662     432.987
  H      -95.569     710.146     433.422
  P      -94.948     705.135     434.347
  C      -93.537     703.877     436.179
  O      -93.684     704.248     434.804
  O      -95.234     705.255     432.892
  O      -96.180     704.325     435.021
  H      -96.600     703.795     434.300
  H      -92.648     703.294     436.298
  H      -94.385     703.301     436.486
  H      -93.469     704.759     436.781

 6  7  8  9  10  11  12  13  14  15  16  26  31  32  33  34  35 0
 6-311+G(2d,p)
 ****
 36  37 0
 6-311+G(2d,p)
 ****
 1  2  3  4  5  17  18  19  20  21  22  23  24  25 0
 3-21G
 ****
 27  28  29  30  38  39  40  41  42  43  44  45 0
 3-21G
 ****


