%nproc=1
%NoSave
%Mem=1900MB
#P OB98/GEN NMR

erre ene a

0 1
  C      145.073    -725.407      74.151
  O      145.851    -724.701      73.196
  P      145.235    -723.474      72.381
  C      147.143    -721.673      72.546
  O      145.866    -722.126      72.950
  C      147.496    -720.405      73.335
  O      147.523    -720.680      74.741
  C      148.860    -719.849      72.926
  O      148.720    -718.859      71.923
  C      149.404    -719.327      74.239
  O      148.865    -718.021      74.518
  C      148.856    -720.358      75.247
  N      149.593    -721.625      75.419
  C      150.920    -721.591      75.845
  O      151.523    -720.560      76.124
  N      151.547    -722.809      75.923
  C      150.969    -724.023      75.665
  O      151.597    -725.066      75.501
  C      149.518    -724.004      75.490
  C      148.909    -722.832      75.352
  O      143.723    -723.421      72.899
  O      145.317    -723.585      70.898
  H      149.221    -717.414      73.842
  H      143.125    -723.855      72.262
  H      152.543    -722.787      76.097
  H      148.997    -724.952      75.426
  H      147.835    -722.801      75.188
  H      148.732    -719.918      76.237
  H      150.487    -719.204      74.196
  H      149.507    -720.667      72.576
  H      146.712    -719.648      73.154
  H      147.144    -721.473      71.467
  H      147.891    -722.452      72.730
  P      149.681    -718.889      70.643
  C      148.001    -717.808      69.031
  O      148.692    -718.995      69.382
  O      150.782    -719.892      70.684
  O      150.244    -717.389      70.572
  H      151.133    -717.348      70.983
  H      147.512    -717.965      68.058
  H      148.698    -716.970      68.948
  H      147.242    -717.589      69.780
  H      145.663    -726.188      74.585
  H      144.217    -725.832      73.670
  H      144.753    -724.734      74.918

 3  4  5  6  7  8  9  10  11  12  13  23  28  29  30  31  32 0
 6-311+G(2d,p)
 ****
 33  34 0
 6-311+G(2d,p)
 ****
 1  2  14  15  16  17  18  19  20  21  22  24  25  26  27 0
 3-21G
 ****
 35  36  37  38  39  40  41  42  43  44  45 0
 3-21G
 ****


