%nproc=1
%NoSave
%Mem=1900MB
#P OB98/GEN NMR

erre ene a

0 1
  C      285.247    -341.590     -22.088
  O      284.161    -340.852     -22.626
  P      283.754    -339.483     -21.892
  C      285.029    -337.304     -21.326
  O      285.124    -338.700     -21.590
  C      286.105    -336.863     -20.340
  O      285.828    -337.468     -19.046
  C      287.533    -337.269     -20.738
  O      288.421    -336.166     -20.495
  C      287.883    -338.364     -19.748
  O      289.290    -338.476     -19.547
  C      287.103    -337.890     -18.523
  N      289.330    -340.203     -14.627
  C      289.697    -339.060     -15.299
  N      290.853    -338.477     -14.905
  N      288.997    -338.527     -16.263
  C      287.850    -339.194     -16.527
  C      287.374    -340.337     -15.926
  C      288.187    -340.948     -14.898
  O      287.958    -342.015     -14.329
  N      286.158    -340.708     -16.453
  C      285.904    -339.798     -17.369
  N      286.921    -338.886     -17.489
  O      283.275    -339.986     -20.448
  O      282.686    -338.690     -22.568
  H      289.610    -337.600     -19.259
  H      282.365    -339.676     -20.277
  H      289.914    -340.582     -13.899
  H      285.020    -339.778     -17.996
  H      287.591    -337.021     -18.068
  H      287.505    -339.323     -20.122
  H      291.422    -338.809     -14.147
  H      287.635    -337.601     -21.775
  H      291.131    -337.619     -15.371
  H      286.032    -335.778     -20.207
  H      284.042    -337.082     -20.912
  H      285.142    -336.759     -22.272
  P      289.650    -336.009     -21.519
  C      289.829    -335.425     -24.055
  O      288.988    -335.666     -22.940
  O      290.175    -337.507     -21.698
  O      290.719    -335.078     -21.049
  H      291.117    -337.510     -21.967
  H      290.875    -335.672     -23.840
  H      289.761    -334.374     -24.331
  H      289.482    -336.042     -24.894
  H      285.404    -342.472     -22.674
  H      285.025    -341.867     -21.079
  H      286.131    -340.988     -22.106

 3  4  5  6  7  8  9  10  11  12  23  26  30  31  33  0
 6-311+G(2d,p)
 ****
 35  36  37  38 0
 6-311+G(2d,p)
 ****
 1  2  13  14  15  16  17  18  19  20  21  22  24  25  27  28  29 0
 3-21G
 ****
 32  34  39  40  41  42  43  44  45  46  47  48  49 0
 3-21G
 ****


