%nproc=1
%NoSave
%Mem=1900MB
#P OB98/GEN NMR

erre ene a

0 1
  C      138.711     -10.558     450.088
  O      138.203     -10.833     448.779
  P      139.159     -11.661     447.795
  C      138.073     -13.897     448.554
  O      138.447     -13.060     447.467
  C      138.950     -15.150     448.578
  O      138.860     -15.841     449.843
  C      138.554     -16.184     447.527
  O      138.979     -15.783     446.236
  C      139.255     -17.423     448.071
  O      140.654     -17.399     447.735
  C      139.086     -17.248     449.589
  N      137.529     -21.920     450.985
  C      138.695     -21.473     450.470
  N      139.030     -20.214     450.123
  C      138.017     -19.366     450.365
  C      136.773     -19.675     450.892
  C      136.537     -21.024     451.206
  N      135.344     -21.484     451.718
  N      135.992     -18.542     450.995
  C      136.745     -17.571     450.518
  N      137.983     -18.019     450.136
  O      140.389     -12.072     448.733
  O      139.610     -10.884     446.601
  H      140.982     -16.496     447.918
  H      141.182     -11.558     448.488
  H      139.461     -22.228     450.314
  H      136.441     -16.535     450.428
  H      139.987     -17.540     450.143
  H      138.840     -18.356     447.679
  H      137.467     -16.331     447.537
  H      139.992     -14.839     448.421
  H      137.023     -14.180     448.467
  H      135.232     -22.477     451.841
  H      134.570     -20.839     451.804
  H      138.171     -13.329     449.484
  P      137.939     -15.952     445.025
  C      136.485     -13.834     444.986
  O      137.681     -14.443     444.533
  O      136.591     -16.301     445.805
  O      138.355     -16.914     443.967
  H      136.451     -15.716     446.569
  H      136.452     -12.808     444.611
  H      136.460     -13.812     446.079
  H      135.619     -14.380     444.601
  H      137.984     -10.003     450.644
  H      139.611      -9.985     450.008
  H      138.918     -11.479     450.591

 3  4  5  6  7  8  9  10  11  12  22  25  29  30  31  32 0
 6-311+G(2d,p)
 ****
 33  36  37 0
 6-311+G(2d,p)
 ****
 1  2  13  14  15  16  17  18  19  20  21  23  24  26 0
 3-21G
 ****
 27  28  34  35  38  39  40  41  42  43  44  45  46  47  48 0
 3-21G
 ****


