%nproc=1
%NoSave
%Mem=1900MB
#P OB98/GEN NMR

erre ene a

0 1
  C      203.745    -403.716    -200.421
  O      202.891    -403.457    -201.514
  H      203.745    -404.792    -200.224
  H      203.377    -403.197    -199.531
  H      204.769    -403.398    -200.643
  P      202.905    -401.959    -202.100
  C      204.311    -402.675    -204.163
  O      204.222    -401.843    -203.019
  C      205.627    -402.418    -204.899
  O      206.748    -402.663    -204.013
  C      205.845    -403.303    -206.116
  O      205.176    -402.798    -207.267
  C      207.355    -403.202    -206.271
  O      207.702    -401.938    -206.873
  C      207.822    -403.241    -204.810
  N      211.492    -406.587    -203.786
  C      211.576    -405.308    -204.300
  N      212.812    -404.858    -204.593
  N      210.540    -404.536    -204.515
  C      209.364    -405.120    -204.182
  C      209.149    -406.380    -203.664
  C      210.306    -407.218    -203.424
  O      210.289    -408.347    -202.950
  N      207.818    -406.621    -203.453
  C      207.223    -405.509    -203.859
  N      208.118    -404.574    -204.318
  O      203.268    -401.065    -200.822
  O      201.633    -401.507    -202.734
  H      207.370    -401.242    -206.273
  H      202.784    -400.221    -200.879
  H      212.319    -407.139    -203.652
  H      206.154    -405.344    -203.836
  H      208.720    -402.630    -204.645
  H      207.769    -403.982    -206.913
  H      213.647    -405.412    -204.501
  H      205.570    -404.350    -205.916
  H      212.907    -403.909    -204.938
  H      205.656    -401.360    -205.181
  H      203.473    -402.451    -204.834
  H      204.250    -403.721    -203.852
  P      204.193    -403.792    -208.057
  C      201.952    -402.526    -207.723
  O      202.762    -403.637    -207.355
  O      204.682    -405.245    -207.573
  O      204.217    -403.661    -209.540
  H      204.431    -405.918    -208.231
  H      201.034    -402.557    -207.175
  H      201.743    -402.569    -208.772
  H      202.470    -401.617    -207.499

 6  7  8  9  10  11  12  13  14  15  26  29  33  34 0
 6-311+G(2d,p)
 ****
 36  38  39  40  41 0
 6-311+G(2d,p)
 ****
 1  2  3  4  5  16  17  18  19  20  21  22  23  24  25 0
 3-21G
 ****
 27  28  30  31  32  35  37  42  43  44  45  46  47 0
 3-21G
 ****
 48  49 0
 3-21G
 ****


