%nproc=1
%NoSave
%Mem=1900MB
#P OB98/GEN NMR

erre ene a

0 1
  C      -81.507     151.065     -36.197
  O      -81.684     151.238     -34.806
  H      -81.872     150.075     -36.476
  H      -80.446     151.129     -36.452
  H      -82.068     151.816     -36.758
  P      -81.415     152.682     -34.167
  C      -83.464     154.205     -34.535
  O      -82.225     153.741     -35.057
  C      -83.574     155.715     -34.727
  O      -82.478     156.383     -34.067
  C      -83.516     156.163     -36.182
  O      -84.742     155.908     -36.840
  C      -83.175     157.635     -36.011
  O      -84.347     158.397     -35.687
  C      -82.197     157.589     -34.812
  N      -80.792     157.641     -35.214
  C      -80.051     158.717     -34.738
  O      -80.537     159.613     -34.050
  N      -78.730     158.742     -35.099
  C      -78.116     157.857     -35.939
  O      -76.939     157.953     -36.275
  C      -78.955     156.760     -36.439
  C      -80.232     156.702     -36.059
  O      -79.984     153.030     -33.924
  O      -82.252     152.649     -32.801
  H      -84.992     158.236     -36.403
  H      -81.653     152.474     -32.052
  H      -78.182     159.521     -34.774
  H      -78.502     156.044     -37.112
  H      -80.870     155.902     -36.422
  H      -82.389     158.428     -34.134
  H      -82.753     158.079     -36.914
  H      -82.684     155.669     -36.699
  H      -84.506     156.052     -34.253
  H      -83.505     153.968     -33.466
  H      -84.280     153.688     -35.048
  P      -84.789     155.680     -38.422
  C      -86.121     153.494     -38.509
  O      -84.844     154.094     -38.682
  O      -83.740     156.400     -39.201
  O      -86.255     156.165     -38.841
  H      -86.201     157.026     -39.297
  H      -86.051     152.444     -38.704
  H      -86.818     153.937     -39.189
  H      -86.455     153.649     -37.504

 6  7  8  9  10  11  12  13  14  15  16  26  31  32  33  34  35 0
 6-311+G(2d,p)
 ****
 36  37 0
 6-311+G(2d,p)
 ****
 1  2  3  4  5  17  18  19  20  21  22  23  24  25 0
 3-21G
 ****
 27  28  29  30  38  39  40  41  42  43  44  45 0
 3-21G
 ****


