%nproc=1
%NoSave
%Mem=1900MB
#P OB98/GEN NMR

erre ene a

0 1
  C      -39.158      19.745      37.687
  O      -38.290      19.897      38.794
  H      -40.135      19.422      38.054
  H      -38.773      18.986      37.000
  H      -39.278      20.696      37.164
  P      -36.772      20.327      38.519
  C      -37.344      22.839      38.351
  O      -36.840      21.692      37.679
  C      -36.928      24.109      37.613
  O      -37.553      25.263      38.207
  C      -35.425      24.379      37.627
  O      -34.770      23.612      36.631
  C      -35.408      25.867      37.322
  O      -35.648      26.077      35.916
  C      -36.612      26.370      38.140
  N      -35.890      30.349      41.205
  C      -36.065      30.307      39.836
  N      -36.010      31.490      39.188
  N      -36.264      29.204      39.161
  C      -36.225      28.092      39.930
  C      -36.041      28.005      41.291
  C      -35.889      29.238      42.034
  O      -35.755      29.320      43.252
  N      -35.967      26.699      41.706
  C      -36.159      26.000      40.604
  N      -36.312      26.799      39.495
  O      -35.893      19.280      37.906
  O      -36.233      20.804      39.947
  H      -35.377      26.990      35.712
  H      -35.809      20.068      40.427
  H      -35.733      31.228      41.669
  H      -36.202      24.919      40.553
  H      -37.122      27.206      37.649
  H      -34.453      26.339      37.559
  H      -35.713      32.348      39.627
  H      -34.996      24.215      38.621
  H      -36.078      31.472      38.177
  H      -37.303      24.036      36.584
  H      -36.932      22.835      39.365
  H      -38.436      22.795      38.417
  P      -33.197      23.774      36.345
  C      -32.419      21.499      37.300
  O      -32.469      22.904      37.478
  O      -32.722      25.182      36.239
  O      -32.941      22.896      35.037
  H      -33.122      23.390      34.199
  H      -31.908      21.053      38.127
  H      -31.897      21.273      36.394
  H      -33.415      21.111      37.245

 6  7  8  9  10  11  12  13  14  15  26  29  33  34 0
 6-311+G(2d,p)
 ****
 36  38  39  40  41 0
 6-311+G(2d,p)
 ****
 1  2  3  4  5  16  17  18  19  20  21  22  23  24  25 0
 3-21G
 ****
 27  28  30  31  32  35  37  42  43  44  45  46  47 0
 3-21G
 ****
 48  49 0
 3-21G
 ****


