%nproc=1
%NoSave
%Mem=1900MB
#P OB98/GEN NMR

erre ene a

0 1
  C      288.154     -85.825     541.027
  O      287.319     -86.788     541.640
  P      287.916     -87.838     542.697
  C      285.842     -87.945     544.227
  O      287.190     -87.503     544.090
  C      284.959     -86.837     544.798
  O      284.865     -85.732     543.872
  C      283.526     -87.262     545.079
  O      283.459     -88.017     546.275
  C      282.823     -85.908     545.145
  O      282.977     -85.304     546.439
  C      283.581     -85.100     544.068
  N      282.831     -84.996     542.821
  C      281.857     -83.997     542.783
  O      281.644     -83.285     543.765
  N      281.099     -83.850     541.638
  C      281.295     -84.663     540.638
  N      280.507     -84.476     539.537
  C      282.295     -85.746     540.651
  C      283.018     -85.858     541.761
  O      289.409     -87.905     542.751
  O      287.227     -89.214     542.257
  H      282.692     -85.978     547.091
  H      287.639     -89.576     541.430
  H      282.409     -86.395     539.800
  H      283.771     -86.631     541.860
  H      283.790     -84.087     544.429
  H      281.747     -85.998     544.956
  H      283.135     -87.836     544.234
  H      285.442     -86.465     545.721
  H      279.818     -83.739     539.572
  H      285.827     -88.806     544.904
  H      280.556     -85.064     538.720
  H      285.469     -88.270     543.240
  P      282.698     -89.428     546.282
  C      284.773     -90.728     547.060
  O      283.788     -90.576     546.049
  O      281.487     -89.512     545.409
  O      282.295     -89.626     547.827
  H      281.374     -89.944     547.874
  H      285.229     -91.713     546.953
  H      284.333     -90.640     548.054
  H      285.550     -89.958     546.924
  H      287.574     -85.223     540.360
  H      288.928     -86.321     540.479
  H      288.592     -85.203     541.779

 3  4  5  6  7  8  9  10  11  12  13  23  27  28  29  30  32 0
 6-311+G(2d,p)
 ****
 34  35 0
 6-311+G(2d,p)
 ****
 1  2  14  15  16  17  18  19  20  21  22  24  25  26 0
 3-21G
 ****
 31  33  36  37  38  39  40  41  42  43  44  45  46 0
 3-21G
 ****


