%nproc=1
%NoSave
%Mem=1900MB
#P OB98/GEN NMR

erre ene a

0 1
  C      410.877    -331.604       0.941
  O      409.755    -332.110       1.656
  P      408.893    -333.271       0.954
  C      407.651    -331.472      -0.446
  O      408.378    -332.693      -0.452
  C      406.763    -331.361      -1.690
  O      407.608    -331.243      -2.865
  C      405.826    -332.559      -1.910
  O      404.622    -332.042      -2.485
  C      406.606    -333.387      -2.921
  O      405.825    -334.359      -3.600
  C      407.190    -332.272      -3.787
  N      408.622    -333.728      -8.484
  C      407.441    -333.275      -7.996
  N      407.132    -332.892      -6.739
  C      408.213    -333.013      -5.934
  C      409.470    -333.482      -6.286
  C      409.658    -333.844      -7.621
  N      410.863    -334.319      -8.107
  N      410.308    -333.484      -5.182
  C      409.562    -333.029      -4.190
  N      408.297    -332.713      -4.601
  O      407.563    -333.316       1.843
  O      409.570    -334.608       0.884
  H      406.371    -334.806      -4.279
  H      407.253    -334.232       1.968
  H      406.634    -333.203      -8.722
  H      409.887    -332.927      -3.164
  H      406.435    -331.835      -4.458
  H      407.404    -333.927      -2.398
  H      405.584    -333.104      -0.991
  H      406.178    -330.435      -1.614
  H      408.351    -330.629      -0.452
  H      410.843    -334.740      -9.031
  H      411.560    -334.594      -7.430
  H      407.057    -331.405       0.470
  P      403.206    -332.537      -1.902
  C      403.300    -334.397      -3.674
  O      403.154    -334.093      -2.303
  O      402.197    -331.898      -2.960
  O      402.933    -332.182      -0.477
  H      402.460    -332.103      -3.877
  H      403.342    -335.485      -3.792
  H      404.237    -333.965      -4.062
  H      402.449    -334.008      -4.240
  H      411.355    -330.842       1.521
  H      410.550    -331.191       0.010
  H      411.569    -332.398       0.755

 3  4  5  6  7  8  9  10  11  12  22  25  29  30  31  32 0
 6-311+G(2d,p)
 ****
 33  36  37 0
 6-311+G(2d,p)
 ****
 1  2  13  14  15  16  17  18  19  20  21  23  24  26 0
 3-21G
 ****
 27  28  34  35  38  39  40  41  42  43  44  45  46  47  48 0
 3-21G
 ****


