%nproc=1
%NoSave
%Mem=1900MB
#P OB98/GEN NMR

erre ene a

0 1
  C     -164.521      57.820      -8.315
  O     -164.996      56.582      -7.821
  P     -166.569      56.416      -7.556
  C     -166.599      55.116      -9.840
  O     -167.232      56.036      -8.969
  C     -167.603      54.574     -10.862
  O     -166.887      53.801     -11.862
  C     -168.686      53.664     -10.266
  O     -169.892      53.899     -11.005
  C     -168.150      52.273     -10.551
  O     -169.165      51.282     -10.542
  C     -167.493      52.493     -11.917
  N     -166.494      51.479     -12.253
  C     -166.736      50.667     -13.356
  O     -167.750      50.737     -14.050
  N     -165.773      49.730     -13.629
  C     -164.653      49.486     -12.887
  O     -163.833      48.623     -13.168
  C     -164.475      50.343     -11.706
  C     -165.380      51.289     -11.455
  O     -167.006      57.935      -7.320
  O     -166.896      55.484      -6.440
  H     -166.512      58.562      -7.871
  H     -168.807      50.481     -10.970
  H     -165.910      49.155     -14.447
  H     -163.605      50.171     -11.083
  H     -165.270      51.932     -10.590
  H     -168.259      52.527     -12.700
  H     -167.409      52.006      -9.788
  H     -168.856      53.857      -9.204
  H     -168.062      55.426     -11.380
  H     -166.196      54.285      -9.261
  H     -165.762      55.612     -10.343
  P     -171.286      53.425     -10.353
  C     -171.514      55.767      -9.206
  O     -171.564      54.361      -9.086
  O     -170.826      52.042      -9.681
  O     -172.407      53.251     -11.323
  H     -170.011      52.127      -9.160
  H     -172.046      56.210      -8.361
  H     -171.983      56.106     -10.131
  H     -170.471      56.099      -9.179
  H     -163.459      57.771      -8.438
  H     -164.765      58.598      -7.622
  H     -164.980      58.027      -9.259

 3  4  5  6  7  8  9  10  11  12  13  24  28  29  30  31  32 0
 6-311+G(2d,p)
 ****
 33  34 0
 6-311+G(2d,p)
 ****
 1  2  14  15  16  17  18  19  20  21  22  23  25  26  27 0
 3-21G
 ****
 35  36  37  38  39  40  41  42  43  44  45 0
 3-21G
 ****


