%nproc=1
%NoSave
%Mem=1900MB
#P OB98/GEN NMR

erre ene a

0 1
  C       48.325      76.363     182.206
  O       49.256      75.396     181.757
  H       48.623      77.359     181.867
  H       47.344      76.126     181.785
  H       48.255      76.344     183.298
  P       50.763      75.550     182.292
  C       51.763      76.122     179.964
  O       51.490      76.567     181.285
  C       53.166      76.548     179.543
  O       53.263      77.990     179.525
  C       54.280      76.071     180.466
  O       54.634      74.720     180.217
  C       55.402      77.023     180.069
  O       56.009      76.575     178.843
  C       54.640      78.335     179.832
  N       57.085      82.230     182.081
  C       57.273      81.610     180.892
  N       56.568      80.593     180.356
  C       55.563      80.231     181.169
  C       55.229      80.785     182.397
  C       56.049      81.828     182.859
  N       55.885      82.411     184.110
  N       54.140      80.136     182.947
  C       53.832      79.200     182.073
  N       54.657      79.223     180.979
  O       51.413      74.128     181.936
  O       50.894      75.870     183.745
  H       56.596      77.292     178.542
  H       51.388      73.557     182.727
  H       58.105      81.980     180.297
  H       53.030      78.485     182.190
  H       55.032      78.893     178.971
  H       56.198      77.085     180.820
  H       54.029      76.234     181.521
  H       53.331      76.195     178.516
  H       51.029      76.558     179.275
  H       56.752      82.770     184.501
  H       55.278      81.894     184.736
  H       51.674      75.030     179.937
  P       55.265      73.873     181.427
  C       57.632      74.017     180.390
  O       56.812      74.295     181.519
  O       55.308      72.388     180.836
  O       54.501      73.925     182.708
  H       54.824      71.782     181.432
  H       58.631      74.347     180.585
  H       57.247      74.531     179.534
  H       57.635      72.964     180.202

 6  7  8  9  10  11  12  13  14  15  25  28  32  33  34  35 0
 6-311+G(2d,p)
 ****
 36  39  40 0
 6-311+G(2d,p)
 ****
 1  2  3  4  5  16  17  18  19  20  21  22  23  24 0
 3-21G
 ****
 26  27  29  30  31  37  38  41  42  43  44  45  46  47  48 0
 3-21G
 ****


