%nproc=1
%NoSave
%Mem=1900MB
#P OB98/GEN NMR

erre ene a

0 1
  C       16.844    -917.225     214.360
  O       15.518    -917.712     214.389
  H       17.431    -917.849     213.678
  H       17.290    -917.284     215.358
  H       16.875    -916.194     213.999
  P       14.401    -916.865     215.171
  C       13.759    -914.995     213.506
  O       13.417    -916.264     214.054
  C       13.508    -914.970     211.989
  O       14.434    -915.918     211.359
  C       12.081    -915.390     211.582
  O       11.780    -914.699     210.362
  C       12.286    -916.879     211.322
  O       11.185    -917.468     210.667
  C       13.626    -916.829     210.585
  N       14.301    -918.111     210.431
  C       13.634    -919.122     209.739
  O       12.505    -919.003     209.247
  N       14.303    -920.306     209.631
  C       15.555    -920.579     210.112
  O       16.114    -921.660     209.953
  C       16.199    -919.482     210.842
  C       15.563    -918.318     210.960
  O       14.912    -915.877     216.160
  O       13.494    -917.988     215.864
  H       13.726    -918.056     216.814
  H       10.944    -916.910     209.894
  H       13.837    -921.050     209.121
  H       17.188    -919.668     211.244
  H       16.022    -917.477     211.476
  H       13.494    -916.381     209.597
  H       12.378    -917.409     212.278
  H       11.330    -915.157     212.333
  H       13.757    -913.981     211.606
  H       14.817    -914.803     213.711
  H       13.153    -914.219     213.994
  P       10.331    -914.078     210.033
  C       10.582    -911.691     211.011
  O       10.489    -912.495     209.827
  O        9.273    -914.454     211.021
  O        9.968    -914.623     208.568
  H        8.999    -914.646     208.468
  H       10.683    -910.662     210.736
  H       11.435    -911.994     211.581
  H        9.697    -911.818     211.599

 6  7  8  9  10  11  12  13  14  15  16  27  31  32  33  34  35 0
 6-311+G(2d,p)
 ****
 36  37 0
 6-311+G(2d,p)
 ****
 1  2  3  4  5  17  18  19  20  21  22  23  24  25 0
 3-21G
 ****
 26  28  29  30  38  39  40  41  42  43  44  45 0
 3-21G
 ****


