%nproc=1
%NoSave
%Mem=1900MB
#P OB98/GEN NMR

erre ene a

0 1
  C       53.317     326.507    -301.451
  O       53.541     327.743    -302.135
  P       52.295     328.656    -302.546
  C       52.863     330.561    -300.890
  O       52.642     330.194    -302.243
  C       53.684     331.852    -300.824
  O       55.080     331.614    -301.114
  C       53.246     332.887    -301.856
  O       51.982     333.489    -301.659
  C       54.453     333.807    -301.925
  O       54.436     334.775    -300.875
  C       55.619     332.804    -301.721
  N       56.315     332.497    -302.972
  C       57.281     333.411    -303.378
  O       57.519     334.452    -302.761
  N       57.944     333.111    -304.535
  C       57.717     332.027    -305.325
  O       58.324     331.819    -306.371
  C       56.669     331.105    -304.862
  C       56.029     331.375    -303.724
  O       50.966     328.194    -302.053
  O       52.335     328.604    -304.153
  H       55.161     335.401    -301.053
  H       51.415     328.526    -304.473
  H       58.653     333.761    -304.835
  H       56.457     330.236    -305.469
  H       55.251     330.708    -303.358
  H       56.356     333.211    -301.018
  H       54.484     334.357    -302.870
  H       53.178     332.381    -302.828
  H       53.622     332.251    -299.807
  H       53.384     329.755    -300.365
  H       51.893     330.681    -300.393
  P       51.269     334.418    -302.757
  C       49.193     332.874    -302.909
  O       49.690     334.177    -302.672
  O       51.885     334.461    -304.116
  O       51.415     335.869    -302.083
  H       51.516     336.532    -302.799
  H       48.102     332.898    -302.832
  H       49.580     332.175    -302.167
  H       49.455     332.542    -303.914
  H       54.256     326.032    -301.256
  H       52.713     325.867    -302.059
  H       52.815     326.697    -300.525

 3  4  5  6  7  8  9  10  11  12  13  23  28  29  30  31  32 0
 6-311+G(2d,p)
 ****
 33  34 0
 6-311+G(2d,p)
 ****
 1  2  14  15  16  17  18  19  20  21  22  24  25  26  27 0
 3-21G
 ****
 35  36  37  38  39  40  41  42  43  44  45 0
 3-21G
 ****


