%nproc=1
%NoSave
%Mem=1900MB
#P OB98/GEN NMR

erre ene a

0 1
  C     -165.035      41.446      16.804
  O     -164.839      40.359      17.682
  H     -166.109      41.577      16.641
  H     -164.563      41.236      15.841
  H     -164.630      42.371      17.223
  P     -163.385      40.120      18.312
  C     -163.617      41.199      20.646
  O     -163.603      39.991      19.897
  C     -164.548      41.058      21.851
  O     -165.870      40.667      21.364
  C     -164.086      39.991      22.864
  O     -164.452      40.421      24.180
  C     -164.932      38.801      22.454
  O     -165.029      37.846      23.480
  C     -166.249      39.484      22.094
  N     -167.115      38.602      21.316
  C     -167.668      37.517      21.985
  O     -167.457      37.265      23.169
  N     -168.425      36.667      21.224
  C     -168.587      36.735      19.872
  O     -169.210      35.905      19.230
  C     -167.933      37.877      19.208
  C     -167.244      38.749      19.948
  O     -162.329      41.093      17.906
  O     -163.018      38.616      17.901
  H     -165.523      37.066      23.162
  H     -162.052      38.479      17.940
  H     -168.842      35.880      21.697
  H     -168.027      37.955      18.133
  H     -166.736      39.591      19.492
  H     -166.781      39.807      22.997
  H     -164.489      38.310      21.580
  H     -163.015      39.793      22.819
  H     -164.664      42.037      22.332
  H     -163.972      42.004      19.992
  H     -162.602      41.433      20.980
  P     -163.376      41.028      25.204
  C     -163.030      43.528      24.734
  O     -163.713      42.567      25.532
  O     -161.953      40.788      24.809
  O     -163.685      40.279      26.588
  H     -162.847      39.980      26.986
  H     -163.324      44.513      25.032
  H     -163.278      43.378      23.704
  H     -161.974      43.416      24.866

 6  7  8  9  10  11  12  13  14  15  16  26  31  32  33  34  35 0
 6-311+G(2d,p)
 ****
 36  37 0
 6-311+G(2d,p)
 ****
 1  2  3  4  5  17  18  19  20  21  22  23  24  25 0
 3-21G
 ****
 27  28  29  30  38  39  40  41  42  43  44  45 0
 3-21G
 ****


