%nproc=1
%NoSave
%Mem=1900MB
#P OB98/GEN NMR

erre ene a

0 1
  C     -898.500    -202.420    -528.355
  O     -898.950    -203.750    -528.183
  H     -898.660    -201.876    -527.421
  H     -899.080    -201.928    -529.143
  H     -897.440    -202.391    -528.607
  P     -898.660    -204.818    -529.343
  C     -896.490    -206.106    -528.772
  O     -897.060    -204.978    -529.432
  C     -895.330    -206.659    -529.594
  O     -895.830    -207.236    -530.825
  C     -894.310    -205.613    -530.011
  O     -893.470    -205.262    -528.928
  C     -893.610    -206.339    -531.152
  O     -892.640    -207.273    -530.647
  C     -894.790    -207.077    -531.822
  N     -895.310    -206.383    -533.004
  C     -894.460    -206.331    -534.109
  O     -893.320    -206.798    -534.096
  N     -894.970    -205.705    -535.223
  C     -896.170    -205.074    -535.301
  O     -896.550    -204.477    -536.307
  C     -897.010    -205.133    -534.093
  C     -896.550    -205.774    -533.021
  O     -899.330    -204.567    -530.647
  O     -899.120    -206.207    -528.697
  H     -892.170    -207.626    -531.423
  H     -900.000    -206.450    -529.035
  H     -894.360    -205.650    -536.020
  H     -897.970    -204.635    -534.125
  H     -897.150    -205.826    -532.118
  H     -894.490    -208.088    -532.121
  H     -893.070    -205.664    -531.816
  H     -894.820    -204.729    -530.419
  H     -894.860    -207.464    -529.018
  H     -897.270    -206.879    -528.662
  H     -896.150    -205.800    -527.780
  P     -892.860    -203.793    -528.809
  C     -893.920    -203.060    -526.592
  O     -893.910    -202.882    -528.004
  O     -892.380    -203.201    -530.095
  O     -891.660    -203.955    -527.764
  H     -890.800    -203.918    -528.236
  H     -894.650    -202.410    -526.156
  H     -892.953    -202.827    -526.196
  H     -894.164    -204.076    -526.362

 6  7  8  9  10  11  12  13  14  15  16  26  31  32  33  34  35 0
 6-311+G(2d,p)
 ****
 36  37 0
 6-311+G(2d,p)
 ****
 1  2  3  4  5  17  18  19  20  21  22  23  24  25 0
 3-21G
 ****
 27  28  29  30  38  39  40  41  42  43  44  45 0
 3-21G
 ****


