%nproc=1
%NoSave
%Mem=1900MB
#P OB98/GEN NMR

erre ene a

0 1
  C      437.414     494.138     223.766
  O      437.064     492.812     223.422
  H      437.038     494.347     224.772
  H      436.955     494.842     223.067
  H      438.499     494.270     223.766
  P      437.629     492.197     222.055
  C      435.305     491.849     220.988
  O      436.492     491.228     221.474
  C      434.263     490.781     220.653
  O      434.671     490.032     219.484
  C      434.064     489.745     221.754
  O      433.290     490.269     222.815
  C      433.403     488.620     220.978
  O      432.001     488.875     220.804
  C      434.148     488.692     219.623
  N      435.211     487.693     219.506
  C      434.936     486.432     220.020
  O      433.876     486.148     220.577
  N      435.936     485.506     219.897
  C      437.197     485.747     219.425
  O      438.087     484.904     219.424
  C      437.443     487.104     218.927
  C      436.451     488.000     218.985
  O      438.992     491.591     222.131
  O      437.594     493.436     221.041
  H      431.597     488.824     221.692
  H      438.500     493.768     220.907
  H      435.760     484.586     220.273
  H      438.420     487.329     218.532
  H      436.619     489.012     218.624
  H      433.445     488.543     218.794
  H      433.495     487.657     221.478
  H      435.037     489.394     222.127
  H      433.318     491.284     220.414
  H      435.549     492.415     220.085
  H      434.922     492.535     221.752
  P      433.926     490.403     224.276
  C      431.968     489.593     225.744
  O      432.732     490.717     225.303
  O      435.104     491.312     224.382
  O      434.336     488.900     224.648
  H      435.299     488.859     224.805
  H      431.207     489.922     226.420
  H      432.611     488.898     226.242
  H      431.514     489.117     224.900

 6  7  8  9  10  11  12  13  14  15  16  26  31  32  33  34  35 0
 6-311+G(2d,p)
 ****
 36  37 0
 6-311+G(2d,p)
 ****
 1  2  3  4  5  17  18  19  20  21  22  23  24  25 0
 3-21G
 ****
 27  28  29  30  38  39  40  41  42  43  44  45 0
 3-21G
 ****


