%nproc=1
%NoSave
%Mem=1900MB
#P OB98/GEN NMR

erre ene a

0 1
  C     -214.282     104.610    -109.516
  O     -212.975     104.501    -110.072
  P     -212.861     104.169    -111.652
  C     -214.065     102.478    -113.205
  O     -213.684     102.824    -111.878
  C     -214.077     100.965    -113.372
  O     -214.749     100.320    -112.274
  C     -214.814     100.478    -114.633
  O     -214.004     100.573    -115.797
  C     -215.067      99.016    -114.267
  O     -213.876      98.238    -114.511
  C     -215.372      99.114    -112.772
  N     -219.299      96.371    -111.096
  C     -217.934      96.085    -111.073
  N     -217.592      94.879    -110.579
  N     -217.000      96.909    -111.473
  C     -217.515      98.081    -111.961
  C     -218.830      98.492    -112.009
  C     -219.845      97.558    -111.568
  O     -221.049      97.737    -111.619
  N     -218.937      99.750    -112.557
  C     -217.692     100.123    -112.791
  N     -216.796      99.129    -112.481
  O     -211.334     103.701    -111.808
  O     -213.204     105.308    -112.555
  H     -213.718      98.276    -115.477
  H     -211.083     103.738    -112.752
  H     -219.957      95.701    -110.776
  H     -217.402     101.073    -113.203
  H     -214.924      98.275    -112.206
  H     -215.866      98.574    -114.868
  H     -218.251      94.168    -110.309
  H     -215.766     101.005    -114.750
  H     -216.601      94.606    -110.604
  H     -213.036     100.609    -113.393
  H     -213.359     102.918    -113.903
  H     -215.064     102.887    -113.416
  P     -214.684     100.107    -117.172
  C     -215.149      97.787    -118.249
  O     -214.706      98.506    -117.122
  O     -213.559     100.458    -118.265
  O     -215.988     100.777    -117.477
  H     -213.954     100.605    -119.129
  H     -214.857      96.744    -118.152
  H     -214.701      98.188    -119.161
  H     -216.238      97.847    -118.339
  H     -214.208     104.830    -108.472
  H     -214.805     103.686    -109.649
  H     -214.815     105.396    -110.009

 3  4  5  6  7  8  9  10  11  12  23  26  30  31 0
 6-311+G(2d,p)
 ****
 33  35  36  37  38 0
 6-311+G(2d,p)
 ****
 1  2  13  14  15  16  17  18  19  20  21  22  24  25 0
 3-21G
 ****
 27  28  29  32  34  39  40  41  42  43  44  45  46  47  48  49 0
 3-21G
 ****


