%nproc=1
%NoSave
%Mem=1900MB
#P OB98/GEN NMR

erre ene a

0 1
  C     -210.434    -809.724     792.010
  O     -211.677    -810.363     792.232
  H     -210.475    -809.211     791.044
  H     -209.628    -810.458     791.981
  H     -210.240    -808.985     792.790
  P     -211.859    -811.245     793.555
  C     -213.796    -809.747     794.372
  O     -212.512    -810.291     794.667
  C     -214.209    -808.753     795.457
  O     -214.364    -809.486     796.696
  C     -213.156    -807.651     795.677
  O     -213.693    -806.337     795.602
  C     -212.485    -808.065     796.987
  O     -211.916    -806.996     797.715
  C     -213.601    -808.817     797.724
  N     -213.110    -809.781     798.713
  C     -212.792    -809.289     799.971
  O     -212.916    -808.118     800.326
  N     -212.321    -810.222     800.869
  C     -212.137    -811.547     800.620
  O     -211.710    -812.328     801.465
  C     -212.472    -811.999     799.261
  C     -212.932    -811.110     798.384
  O     -210.649    -811.993     794.005
  O     -213.062    -812.246     793.189
  H     -211.240    -806.574     797.139
  H     -212.702    -813.128     792.979
  H     -212.096    -809.876     801.789
  H     -212.326    -813.040     799.031
  H     -213.184    -811.409     797.368
  H     -214.260    -808.124     798.237
  H     -211.676    -808.762     796.746
  H     -212.408    -807.661     794.878
  H     -215.187    -808.327     795.198
  H     -214.510    -810.580     794.330
  H     -213.765    -809.249     793.398
  P     -213.659    -805.415     794.304
  C     -216.158    -804.684     794.644
  O     -215.161    -805.221     793.779
  O     -212.630    -805.769     793.284
  O     -213.277    -803.950     794.898
  H     -212.743    -803.507     794.203
  H     -217.091    -804.629     794.123
  H     -215.867    -803.703     794.958
  H     -216.265    -805.316     795.501

 6  7  8  9  10  11  12  13  14  15  16  26  31  32  33  34  35 0
 6-311+G(2d,p)
 ****
 36  37 0
 6-311+G(2d,p)
 ****
 1  2  3  4  5  17  18  19  20  21  22  23  24  25 0
 3-21G
 ****
 27  28  29  30  38  39  40  41  42  43  44  45 0
 3-21G
 ****


