%nproc=1
%NoSave
%Mem=1900MB
#P OB98/GEN NMR

erre ene a

0 1
  C       -7.728     250.792    -362.730
  O       -8.681     250.090    -361.957
  H       -7.596     250.266    -363.682
  H       -6.766     250.823    -362.213
  H       -8.071     251.811    -362.942
  P       -9.177     250.736    -360.574
  C       -8.456     249.736    -358.308
  O       -8.045     250.422    -359.483
  C       -8.530     248.234    -358.584
  O       -7.349     247.797    -359.292
  C       -8.603     247.376    -357.325
  O       -9.892     247.407    -356.757
  C       -8.179     246.024    -357.876
  O       -9.282     245.366    -358.521
  C       -7.097     246.428    -358.902
  N       -5.734     246.263    -358.392
  C       -5.187     244.982    -358.477
  O       -5.803     244.018    -358.927
  N       -3.916     244.852    -357.998
  C       -3.189     245.813    -357.355
  O       -2.080     245.615    -356.865
  C       -3.826     247.135    -357.269
  C       -5.052     247.300    -357.783
  O      -10.567     250.386    -360.161
  O       -9.016     252.311    -360.813
  H       -9.731     246.046    -359.059
  H       -9.898     252.708    -360.962
  H       -3.505     243.930    -358.041
  H       -3.286     247.932    -356.780
  H       -5.539     248.264    -357.726
  H       -7.194     245.821    -359.815
  H       -7.820     245.352    -357.095
  H       -7.847     247.714    -356.603
  H       -9.401     248.047    -359.230
  H       -9.447     250.099    -358.011
  H       -7.744     249.947    -357.502
  P      -10.090     247.078    -355.200
  C      -11.440     244.908    -354.927
  O      -10.140     245.484    -355.042
  O      -11.194     247.820    -354.523
  O       -8.673     247.455    -354.550
  H       -8.799     248.160    -353.884
  H      -11.352     243.846    -354.827
  H      -12.011     245.138    -355.802
  H      -11.932     245.308    -354.065

 6  7  8  9  10  11  12  13  14  15  16  26  31  32  33  34  35 0
 6-311+G(2d,p)
 ****
 36  37 0
 6-311+G(2d,p)
 ****
 1  2  3  4  5  17  18  19  20  21  22  23  24  25 0
 3-21G
 ****
 27  28  29  30  38  39  40  41  42  43  44  45 0
 3-21G
 ****


