%nproc=1
%NoSave
%Mem=1900MB
#P OB98/GEN NMR

erre ene a

0 1
  C     -302.867      60.729    -201.048
  O     -302.025      60.605    -199.911
  P     -301.819      59.143    -199.290
  C     -303.936      59.547    -197.859
  O     -302.577      59.139    -197.872
  C     -304.403      59.848    -196.440
  O     -305.766      60.355    -196.486
  C     -304.393      58.632    -195.500
  O     -303.858      59.020    -194.228
  C     -305.870      58.325    -195.304
  O     -306.115      57.650    -194.077
  C     -306.458      59.732    -195.387
  N     -310.950      59.097    -193.167
  C     -309.697      59.217    -192.601
  N     -309.626      59.093    -191.258
  N     -308.607      59.438    -193.288
  C     -308.830      59.568    -194.621
  C     -310.024      59.479    -195.296
  C     -311.213      59.177    -194.530
  O     -312.341      58.967    -194.981
  N     -309.853      59.687    -196.642
  C     -308.558      59.897    -196.781
  N     -307.888      59.790    -195.589
  O     -300.269      59.137    -198.895
  O     -302.150      58.009    -200.202
  H     -306.968      57.179    -194.171
  H     -299.821      58.383    -199.329
  H     -311.753      58.910    -192.591
  H     -308.064      60.103    -197.723
  H     -306.227      60.299    -194.472
  H     -306.217      57.693    -196.127
  H     -310.431      58.963    -190.664
  H     -303.841      57.768    -195.887
  H     -308.720      59.202    -190.823
  H     -303.778      60.655    -196.033
  H     -304.557      58.748    -198.279
  H     -304.046      60.440    -198.487
  P     -302.373      58.496    -193.901
  C     -303.206      57.809    -191.534
  O     -302.249      58.507    -192.305
  O     -301.443      59.712    -194.366
  O     -302.022      57.213    -194.580
  H     -300.545      59.393    -194.581
  H     -303.861      57.188    -192.149
  H     -303.818      58.533    -190.986
  H     -302.686      57.172    -190.814
  H     -302.910      61.755    -201.350
  H     -303.851      60.388    -200.802
  H     -302.475      60.138    -201.849

 3  4  5  6  7  8  9  10  11  12  23  26  30  31  33  0
 6-311+G(2d,p)
 ****
 35  36  37  38 0
 6-311+G(2d,p)
 ****
 1  2  13  14  15  16  17  18  19  20  21  22  24  25  27  28  29 0
 3-21G
 ****
 32  34  39  40  41  42  43  44  45  46  47  48  49 0
 3-21G
 ****


