%nproc=1
%NoSave
%Mem=1900MB
#P OB98/GEN NMR

erre ene a

0 1
  C      623.953      27.401     -14.341
  O      622.795      27.600     -13.553
  H      623.780      27.835     -15.330
  H      624.164      26.336     -14.458
  H      624.808      27.903     -13.884
  P      622.721      26.919     -12.106
  C      621.297      28.508     -10.658
  O      621.306      27.344     -11.477
  C      620.976      29.751     -11.488
  O      619.735      29.517     -12.208
  C      620.808      31.022     -10.652
  O      621.352      32.120     -11.383
  C      619.302      31.151     -10.541
  O      618.909      32.486     -10.279
  C      618.826      30.584     -11.882
  N      617.443      30.122     -11.798
  C      616.462      30.981     -12.307
  O      616.783      32.064     -12.805
  N      615.142      30.638     -12.178
  C      614.820      29.551     -11.551
  N      613.491      29.283     -11.424
  C      615.817      28.625     -10.974
  C      617.092      28.965     -11.132
  O      623.892      27.143     -11.211
  O      622.519      25.364     -12.429
  H      619.276      33.075     -10.972
  H      623.386      24.921     -12.488
  H      615.495      27.734     -10.451
  H      617.898      28.353     -10.734
  H      618.898      31.343     -12.672
  H      618.936      30.527      -9.715
  H      621.284      30.952      -9.666
  H      621.759      29.880     -12.246
  H      612.844      29.961     -11.814
  H      622.292      28.611     -10.215
  H      613.117      28.497     -10.920
  H      620.563      28.389      -9.856
  P      622.940      32.263     -11.584
  C      622.963      33.939     -13.516
  O      623.268      33.735     -12.140
  O      623.574      31.153     -12.352
  O      623.511      32.304     -10.084
  H      624.410      31.922     -10.071
  H      623.214      34.942     -13.792
  H      621.918      33.776     -13.678
  H      623.528      33.253     -14.112

 6  7  8  9  10  11  12  13  14  15  16  26  30  31  32  33  35 0
 6-311+G(2d,p)
 ****
 37  38 0
 6-311+G(2d,p)
 ****
 1  2  3  4  5  17  18  19  20  21  22  23  24  25 0
 3-21G
 ****
 27  28  29  34  36  39  40  41  42  43  44  45  46 0
 3-21G
 ****


