%nproc=1
%NoSave
%Mem=1900MB
#P OB98/GEN NMR

erre ene a

0 1
  C     -248.438     488.146      99.904
  O     -248.486     487.794      98.538
  H     -247.392     488.206     100.214
  H     -248.939     487.382     100.506
  H     -248.909     489.121     100.067
  P     -249.925     487.803      97.823
  C     -250.490     486.016      99.622
  O     -250.951     487.112      98.847
  C     -251.563     484.932      99.710
  O     -252.712     485.469     100.410
  C     -252.038     484.425      98.341
  O     -252.269     483.016      98.430
  C     -253.362     485.142      98.131
  O     -254.237     484.437      97.248
  C     -253.875     485.270      99.576
  N     -254.831     486.370      99.706
  C     -256.185     486.020      99.741
  O     -256.527     484.835      99.651
  N     -257.121     487.019      99.815
  C     -256.745     488.254      99.766
  N     -257.729     489.197      99.814
  C     -255.333     488.669      99.662
  C     -254.437     487.687      99.645
  O     -249.766     486.708      96.667
  O     -250.368     489.124      97.297
  H     -255.064     484.959      97.154
  H     -250.313     486.933      95.892
  H     -255.075     489.721      99.599
  H     -253.377     487.893      99.566
  H     -254.360     484.341      99.895
  H     -253.179     486.137      97.706
  H     -251.328     484.631      97.536
  H     -251.175     484.106     100.314
  H     -258.689     488.876      99.874
  H     -250.256     486.370     100.630
  H     -257.559     490.192      99.739
  H     -249.574     485.613      99.176
  P     -251.506     482.090      97.360
  C     -253.069     481.874      95.293
  O     -251.966     482.544      95.891
  O     -252.195     480.661      97.553
  O     -250.030     482.029      97.570
  H     -251.573     480.045      97.989
  H     -253.253     482.286      94.323
  H     -253.938     482.001      95.905
  H     -252.846     480.831      95.202

 6  7  8  9  10  11  12  13  14  15  16  26  30  31  32  33  35 0
 6-311+G(2d,p)
 ****
 37  38 0
 6-311+G(2d,p)
 ****
 1  2  3  4  5  17  18  19  20  21  22  23  24  25 0
 3-21G
 ****
 27  28  29  34  36  39  40  41  42  43  44  45  46 0
 3-21G
 ****


