%nproc=1
%NoSave
%Mem=1900MB
#P OB98/GEN NMR

erre ene a

0 1
  C     1349.695     118.332     710.195
  O     1348.610     117.424     710.277
  H     1349.369     119.294     710.602
  H     1349.981     118.465     709.154
  H     1350.544     117.971     710.768
  P     1348.931     115.875     710.029
  C     1349.253     116.010     707.455
  O     1349.865     115.792     708.721
  C     1349.656     114.911     706.468
  O     1349.085     115.217     705.177
  C     1351.177     114.768     706.288
  O     1351.494     113.373     706.150
  C     1351.445     115.467     704.964
  O     1352.627     114.987     704.327
  C     1350.144     115.177     704.205
  N     1349.880     115.810     699.209
  C     1350.026     114.651     699.939
  N     1350.121     113.484     699.289
  N     1350.070     114.638     701.261
  C     1349.938     115.866     701.815
  C     1349.791     117.088     701.178
  C     1349.756     117.085     699.739
  O     1349.655     118.073     699.019
  N     1349.698     118.102     702.086
  C     1349.808     117.532     703.261
  N     1349.931     116.157     703.147
  O     1347.532     115.289     709.521
  O     1349.432     115.131     711.219
  H     1352.660     115.420     703.443
  H     1347.189     114.643     710.175
  H     1349.859     115.765     698.200
  H     1349.786     118.026     704.217
  H     1350.164     114.199     703.720
  H     1351.567     116.554     705.149
  H     1350.045     113.426     698.273
  H     1351.744     115.197     707.112
  H     1350.194     112.623     699.809
  H     1349.207     113.957     706.802
  H     1349.580     116.993     707.070
  H     1348.172     116.021     707.573
  P     1352.339     112.720     707.346
  C     1354.708     113.225     706.435
  O     1353.750     113.472     707.445
  O     1352.741     111.270     706.777
  O     1351.616     112.595     708.652
  H     1352.195     110.584     707.224
  H     1355.592     113.793     706.635
  H     1354.307     113.512     705.485
  H     1354.950     112.183     706.420

 6  7  8  9  10  11  12  13  14  15  26  29  33  34 0
 6-311+G(2d,p)
 ****
 36  38  39  40  41 0
 6-311+G(2d,p)
 ****
 1  2  3  4  5  16  17  18  19  20  21  22  23  24  25 0
 3-21G
 ****
 27  28  30  31  32  35  37  42  43  44  45  46  47 0
 3-21G
 ****
 48  49 0
 3-21G
 ****


