%nproc=1
%NoSave
%Mem=1900MB
#P OB98/GEN NMR

erre ene a

0 1
  C     -142.235    -670.730      -0.646
  O     -141.328    -671.672      -0.114
  H     -141.808    -669.725      -0.604
  H     -142.434    -670.985      -1.692
  H     -143.180    -670.758      -0.091
  P     -140.907    -671.483       1.424
  C     -139.850    -669.550       2.800
  O     -140.238    -670.028       1.517
  C     -139.376    -668.105       2.685
  O     -140.376    -667.299       2.022
  C     -139.117    -667.422       4.022
  O     -137.847    -667.756       4.561
  C     -139.167    -665.963       3.605
  O     -137.940    -665.599       2.950
  C     -140.328    -665.967       2.594
  N     -143.041    -662.408       5.073
  C     -141.767    -662.418       4.632
  N     -141.116    -663.409       3.986
  C     -141.922    -664.472       3.806
  C     -143.241    -664.606       4.212
  C     -143.808    -663.500       4.870
  N     -145.105    -663.489       5.341
  N     -143.728    -665.857       3.885
  C     -142.730    -666.450       3.261
  N     -141.614    -665.658       3.198
  O     -139.658    -672.469       1.594
  O     -141.980    -671.746       2.425
  H     -137.849    -666.192       2.179
  H     -139.525    -672.681       2.537
  H     -141.192    -661.520       4.823
  H     -142.763    -667.449       2.843
  H     -140.173    -665.258       1.775
  H     -139.296    -665.281       4.443
  H     -139.923    -667.620       4.740
  H     -138.472    -668.090       2.060
  H     -139.036    -670.169       3.182
  H     -145.354    -662.731       5.955
  H     -145.633    -664.352       5.323
  H     -140.703    -669.617       3.480
  P     -137.585    -667.405       6.107
  C     -138.663    -665.483       7.487
  O     -138.003    -665.872       6.284
  O     -135.989    -667.372       6.201
  O     -138.198    -668.362       7.075
  H     -135.693    -667.581       7.114
  H     -138.875    -664.435       7.454
  H     -138.031    -665.693       8.324
  H     -139.578    -666.029       7.585

 6  7  8  9  10  11  12  13  14  15  25  28  32  33  34  35 0
 6-311+G(2d,p)
 ****
 36  39  40 0
 6-311+G(2d,p)
 ****
 1  2  3  4  5  16  17  18  19  20  21  22  23  24 0
 3-21G
 ****
 26  27  29  30  31  37  38  41  42  43  44  45  46  47 0
 3-21G
 ****
 48 0
 3-21G
 ****


