%nproc=1
%NoSave
%Mem=1900MB
#P OB98/GEN NMR

erre ene a

0 1
  C       22.145     -75.970    -110.667
  O       21.353     -75.809    -109.505
  H       22.263     -77.038    -110.867
  H       23.133     -75.529    -110.506
  H       21.663     -75.500    -111.528
  P       20.868     -74.318    -109.176
  C       23.125     -73.959    -107.889
  O       22.181     -73.456    -108.824
  C       23.649     -72.825    -107.014
  O       24.474     -71.925    -107.780
  C       22.567     -71.924    -106.444
  O       21.829     -72.543    -105.414
  C       23.403     -70.744    -105.967
  O       23.949     -70.975    -104.663
  C       24.528     -70.688    -107.029
  N       24.408     -69.519    -107.880
  C       25.263     -68.456    -107.561
  O       26.059     -68.562    -106.627
  N       25.166     -67.295    -108.281
  C       24.275     -67.191    -109.218
  N       24.209     -66.001    -109.873
  C       23.354     -68.286    -109.585
  C       23.473     -69.411    -108.881
  O       20.156     -74.494    -107.755
  O       20.005     -73.696    -110.220
  H       23.208     -70.861    -104.031
  H       20.687     -74.986    -107.108
  H       22.638     -68.154    -110.383
  H       22.837     -70.265    -109.083
  H       25.513     -70.660    -106.545
  H       22.810     -69.828    -105.907
  H       21.907     -71.571    -107.248
  H       24.262     -73.265    -106.215
  H       24.821     -65.260    -109.553
  H       23.953     -74.453    -108.407
  H       23.507     -65.779    -110.563
  H       22.619     -74.712    -107.277
  P       20.252     -72.313    -105.264
  C       20.655     -70.355    -103.638
  O       20.047     -70.771    -104.857
  O       19.546     -73.281    -104.376
  O       19.739     -72.326    -106.781
  H       20.133     -71.644    -107.352
  H       20.451     -69.317    -103.474
  H       21.713     -70.506    -103.697
  H       20.258     -70.929    -102.827

 6  7  8  9  10  11  12  13  14  15  16  26  30  31  32  33  35 0
 6-311+G(2d,p)
 ****
 37  38 0
 6-311+G(2d,p)
 ****
 1  2  3  4  5  17  18  19  20  21  22  23  24  25 0
 3-21G
 ****
 27  28  29  34  36  39  40  41  42  43  44  45  46 0
 3-21G
 ****


