%nproc=1
%NoSave
%Mem=1900MB
#P OB98/GEN NMR

erre ene a

0 1
  C       59.918      30.113     -21.800
  O       59.796      28.783     -22.262
  H       59.674      30.792     -22.621
  H       60.941      30.315     -21.472
  H       59.221      30.296     -20.977
  P       60.178      27.590     -21.265
  C       59.424      26.898     -18.888
  O       59.490      27.937     -19.860
  C       59.427      27.481     -17.477
  O       60.644      28.218     -17.243
  C       58.291      28.460     -17.205
  O       57.071      27.770     -17.023
  C       58.828      29.174     -15.976
  O       58.649      28.376     -14.796
  C       60.331      29.296     -16.329
  N       60.690      30.587     -16.908
  C       60.574      31.695     -16.061
  O       60.174      31.554     -14.906
  N       60.898      32.934     -16.558
  C       61.340      33.054     -17.769
  N       61.648      34.306     -18.198
  C       61.510      31.907     -18.682
  C       61.159      30.718     -18.196
  O       61.633      27.246     -21.172
  O       59.313      26.351     -21.795
  H       59.196      27.576     -14.924
  H       59.838      25.807     -22.411
  H       61.891      32.052     -19.683
  H       61.253      29.823     -18.803
  H       60.948      29.141     -15.434
  H       58.326      30.126     -15.797
  H       58.213      29.187     -18.020
  H       59.406      26.645     -16.766
  H       61.534      35.060     -17.527
  H       60.304      26.263     -19.036
  H       62.147      34.499     -19.054
  H       58.528      26.285     -19.040
  P       55.657      28.495     -17.231
  C       54.350      29.223     -19.322
  O       55.630      28.965     -18.766
  O       55.339      29.563     -16.240
  O       54.609      27.286     -17.222
  H       54.446      26.977     -16.296
  H       54.459      29.527     -20.342
  H       53.871      30.002     -18.767
  H       53.755      28.335     -19.276

 6  7  8  9  10  11  12  13  14  15  16  26  30  31  32  33  35 0
 6-311+G(2d,p)
 ****
 37  38 0
 6-311+G(2d,p)
 ****
 1  2  3  4  5  17  18  19  20  21  22  23  24  25 0
 3-21G
 ****
 27  28  29  34  36  39  40  41  42  43  44  45  46 0
 3-21G
 ****


