%nproc=1
%NoSave
%Mem=1900MB
#P OB98/GEN NMR

erre ene a

0 1
  C      272.472     105.715    -247.913
  O      273.194     105.894    -246.709
  H      271.950     104.750    -247.863
  H      273.144     105.702    -248.774
  H      271.728     106.506    -248.030
  P      274.248     107.105    -246.634
  C      272.451     108.749    -245.762
  O      273.375     108.443    -246.810
  C      272.675     110.159    -245.220
  O      272.410     111.136    -246.253
  C      271.753     110.531    -244.073
  O      272.013     109.834    -242.872
  C      271.809     112.051    -244.084
  O      272.896     112.587    -243.349
  C      272.006     112.352    -245.594
  N      270.806     112.924    -246.199
  C      270.694     114.308    -246.135
  O      271.526     115.030    -245.583
  N      269.565     114.850    -246.689
  C      268.534     114.139    -247.244
  O      267.524     114.681    -247.683
  C      268.700     112.675    -247.262
  C      269.809     112.144    -246.741
  O      275.409     107.013    -247.580
  O      274.675     107.146    -245.095
  H      272.960     113.540    -243.577
  H      275.505     107.667    -244.972
  H      269.474     115.847    -246.659
  H      267.891     112.084    -247.690
  H      269.947     111.063    -246.748
  H      272.827     113.066    -245.739
  H      270.898     112.493    -243.673
  H      270.729     110.262    -244.364
  H      273.731     110.250    -244.931
  H      272.616     108.018    -244.956
  H      271.424     108.632    -246.134
  P      270.967     108.834    -242.188
  C      272.276     106.610    -242.419
  O      271.171     107.380    -242.840
  O      269.580     109.350    -241.981
  O      271.627     108.640    -240.728
  H      270.904     108.535    -240.083
  H      272.277     105.674    -242.938
  H      272.207     106.433    -241.366
  H      273.181     107.138    -242.634

 6  7  8  9  10  11  12  13  14  15  16  26  31  32  33  34  35 0
 6-311+G(2d,p)
 ****
 36  37 0
 6-311+G(2d,p)
 ****
 1  2  3  4  5  17  18  19  20  21  22  23  24  25 0
 3-21G
 ****
 27  28  29  30  38  39  40  41  42  43  44  45 0
 3-21G
 ****


