%nproc=1
%NoSave
%Mem=1900MB
#P OB98/GEN NMR

erre ene a

0 1
  C      132.152     -46.290      81.657
  O      133.368     -46.166      80.947
  H      132.251     -45.771      82.615
  H      131.925     -47.341      81.853
  H      131.334     -45.831      81.095
  P      133.508     -46.911      79.537
  C      134.607     -49.007      80.583
  O      134.748     -47.916      79.679
  C      135.976     -49.533      81.008
  O      135.829     -50.573      81.995
  C      136.787     -50.148      79.873
  O      137.323     -49.141      79.040
  C      137.805     -50.954      80.663
  O      138.846     -50.108      81.175
  C      136.928     -51.499      81.819
  N      136.435     -52.853      81.586
  C      137.386     -53.790      81.169
  O      138.558     -53.454      81.004
  N      136.974     -55.079      80.934
  C      135.740     -55.414      81.139
  N      135.397     -56.707      80.892
  C      134.714     -54.465      81.612
  C      135.123     -53.212      81.802
  O      133.561     -46.032      78.326
  O      132.247     -47.897      79.496
  H      139.394     -50.674      81.755
  H      131.499     -47.476      79.032
  H      133.697     -54.790      81.779
  H      134.432     -52.451      82.149
  H      137.494     -51.500      82.760
  H      138.286     -51.723      80.059
  H      136.166     -50.845      79.299
  H      136.524     -48.706      81.480
  H      136.141     -57.328      80.589
  H      134.049     -49.790      80.058
  H      134.516     -57.115      81.169
  H      134.029     -48.706      81.465
  P      137.100     -49.159      77.452
  C      139.320     -47.874      77.283
  O      137.962     -47.932      76.878
  O      135.676     -49.188      77.011
  O      137.943     -50.429      76.968
  H      137.451     -51.266      77.164
  H      139.788     -47.020      76.840
  H      139.825     -48.762      76.965
  H      139.371     -47.796      78.349

 6  7  8  9  10  11  12  13  14  15  16  26  30  31  32  33  35 0
 6-311+G(2d,p)
 ****
 37  38 0
 6-311+G(2d,p)
 ****
 1  2  3  4  5  17  18  19  20  21  22  23  24  25 0
 3-21G
 ****
 27  28  29  34  36  39  40  41  42  43  44  45  46 0
 3-21G
 ****


