%nproc=1
%NoSave
%Mem=1900MB
#P OB98/GEN NMR

erre ene a

0 1
  C       -6.233      69.507      78.505
  O       -5.834      68.218      78.940
  P       -5.072      68.020      80.332
  C       -2.805      66.703      80.474
  O       -3.516      67.839      80.032
  C       -2.582      65.761      79.283
  O       -2.216      66.519      78.111
  C       -1.467      64.756      79.562
  O       -2.003      63.538      80.056
  C       -0.798      64.618      78.208
  O       -1.533      63.702      77.375
  C       -0.915      66.058      77.655
  N        0.093      67.050      78.076
  C        1.442      66.800      77.839
  O        1.862      65.801      77.264
  N        2.314      67.747      78.319
  C        1.964      68.906      78.952
  O        2.743      69.613      79.582
  C        0.537      69.235      78.926
  C       -0.321      68.299      78.518
  O       -5.533      66.558      80.790
  O       -5.358      69.051      81.373
  H       -1.407      62.811      77.748
  H       -6.255      66.615      81.443
  H        3.299      67.505      78.275
  H        0.226      70.205      79.289
  H       -1.388      68.506      78.525
  H       -0.930      66.057      76.559
  H        0.204      64.205      78.303
  H       -0.742      65.181      80.270
  H       -3.522      65.237      79.065
  H       -3.366      66.193      81.264
  H       -1.844      67.004      80.903
  P       -1.028      62.300      80.330
  C       -0.836      60.292      78.747
  O       -0.698      61.693      78.882
  O       -1.508      61.314      81.344
  O        0.339      63.003      80.785
  H        0.401      63.009      81.762
  H       -0.761      60.034      77.688
  H       -1.808      59.965      79.126
  H       -0.034      59.788      79.293
  H       -6.724      69.428      77.557
  H       -5.371      70.134      78.409
  H       -6.905      69.933      79.220

 3  4  5  6  7  8  9  10  11  12  13  23  28  29  30  31  32 0
 6-311+G(2d,p)
 ****
 33  34 0
 6-311+G(2d,p)
 ****
 1  2  14  15  16  17  18  19  20  21  22  24  25  26  27 0
 3-21G
 ****
 35  36  37  38  39  40  41  42  43  44  45 0
 3-21G
 ****


