%nproc=1
%NoSave
%Mem=1900MB
#P OB98/GEN NMR

erre ene a

0 1
  C      117.210      25.605     155.458
  O      116.258      26.399     154.777
  H      118.143      25.568     154.891
  H      117.409      26.051     156.435
  H      116.823      24.593     155.604
  P      115.855      25.935     153.296
  C      114.134      24.255     152.328
  O      114.503      25.076     153.428
  C      113.090      23.229     152.767
  O      113.658      22.426     153.833
  C      111.771      23.835     153.279
  O      110.668      23.346     152.508
  C      111.638      23.307     154.699
  O      110.301      22.931     155.037
  C      112.581      22.109     154.723
  N      111.604      19.655     159.083
  C      111.170      19.443     157.820
  N      111.550      20.063     156.687
  C      112.500      20.979     156.942
  C      113.059      21.293     158.169
  C      112.558      20.595     159.281
  N      112.957      20.853     160.575
  N      114.001      22.297     158.038
  C      113.983      22.612     156.759
  N      113.076      21.855     156.061
  O      116.964      24.836     152.942
  O      115.814      27.026     152.279
  H      110.044      22.227     154.413
  H      117.329      25.012     152.053
  H      110.409      18.671     157.710
  H      114.563      23.402     156.295
  H      112.097      21.193     154.355
  H      111.963      24.083     155.400
  H      111.777      24.933     153.266
  H      112.895      22.554     151.926
  H      115.015      23.723     151.953
  H      112.461      20.391     161.321
  H      113.586      21.629     160.743
  H      113.739      24.888     151.524
  P      109.815      24.443     151.696
  C      111.078      26.622     151.029
  O      110.840      25.248     150.756
  O      109.435      25.512     152.826
  O      108.608      23.890     151.018
  H      108.611      25.972     152.586
  H      111.779      27.010     150.320
  H      111.476      26.726     152.017
  H      110.159      27.165     150.956

 6  7  8  9  10  11  12  13  14  15  25  28  32  33  34  35 0
 6-311+G(2d,p)
 ****
 36  39  40 0
 6-311+G(2d,p)
 ****
 1  2  3  4  5  16  17  18  19  20  21  22  23  24 0
 3-21G
 ****
 26  27  29  30  31  37  38  41  42  43  44  45  46  47  48 0
 3-21G
 ****


