%nproc=1
%NoSave
%Mem=1900MB
#P OB98/GEN NMR

erre ene a

0 1
  C       17.792    -172.110      84.681
  O       19.005    -172.828      84.578
  H       17.020    -172.777      85.075
  H       17.481    -171.757      83.694
  H       17.907    -171.261      85.361
  P       20.302    -172.003      84.127
  C       20.080    -172.551      81.589
  O       20.047    -171.558      82.603
  C       19.278    -172.080      80.376
  O       19.246    -173.155      79.396
  C       17.825    -171.720      80.708
  O       17.425    -170.604      79.910
  C       17.053    -172.960      80.288
  O       15.685    -172.711      80.002
  C       17.863    -173.403      79.065
  N       17.655    -174.811      78.735
  C       16.684    -175.110      77.786
  O       16.042    -174.275      77.152
  N       16.456    -176.446      77.572
  C       17.072    -177.480      78.215
  O       16.809    -178.658      77.998
  C       18.082    -177.100      79.214
  C       18.324    -175.804      79.424
  O       21.431    -173.133      83.990
  O       20.712    -170.892      85.032
  H       21.905    -173.245      84.837
  H       15.254    -173.570      79.813
  H       15.754    -176.682      76.888
  H       18.584    -177.895      79.749
  H       19.052    -175.492      80.162
  H       17.618    -172.778      78.198
  H       17.101    -173.717      81.076
  H       17.678    -171.491      81.766
  H       19.799    -171.233      79.908
  H       19.638    -173.473      81.978
  H       21.120    -172.745      81.307
  P       16.978    -169.266      80.679
  C       14.411    -169.724      80.885
  O       15.673    -169.664      81.529
  O       16.415    -168.381      79.476
  O       18.090    -168.645      81.463
  H       15.946    -168.898      78.800
  H       13.661    -170.002      81.596
  H       14.445    -170.450      80.100
  H       14.175    -168.765      80.474

 6  7  8  9  10  11  12  13  14  15  16  27  31  32  33  34  35 0
 6-311+G(2d,p)
 ****
 36  37 0
 6-311+G(2d,p)
 ****
 1  2  3  4  5  17  18  19  20  21  22  23  24  25 0
 3-21G
 ****
 26  28  29  30  38  39  40  41  42  43  44  45 0
 3-21G
 ****


