%nproc=1
%NoSave
%Mem=1900MB
#P OB98/GEN NMR

erre ene a

0 1
  C     -319.548     206.768    -185.543
  O     -320.967     206.934    -185.445
  P     -321.708     207.552    -186.736
  C     -323.658     205.832    -186.594
  O     -323.269     207.198    -186.596
  C     -325.057     205.668    -186.003
  O     -325.020     205.711    -184.560
  C     -326.035     206.765    -186.405
  O     -326.567     206.545    -187.702
  C     -327.119     206.596    -185.343
  O     -328.018     205.539    -185.726
  C     -326.305     206.189    -184.103
  N     -328.517     209.627    -181.106
  C     -329.084     208.666    -181.914
  N     -330.432     208.587    -181.900
  N     -328.394     207.848    -182.664
  C     -327.055     208.017    -182.557
  C     -326.373     208.936    -181.795
  C     -327.148     209.859    -180.988
  O     -326.702     210.755    -180.282
  N     -325.015     208.801    -181.936
  C     -324.874     207.785    -182.758
  N     -326.084     207.281    -183.177
  O     -321.216     206.598    -187.920
  O     -321.385     208.985    -186.993
  H     -327.462     204.799    -186.050
  H     -321.240     207.081    -188.768
  H     -329.093     210.235    -180.552
  H     -323.926     207.370    -183.081
  H     -326.783     205.366    -183.558
  H     -327.727     207.497    -185.212
  H     -331.019     209.133    -181.293
  H     -325.577     207.758    -186.308
  H     -330.865     207.860    -182.456
  H     -325.447     204.688    -186.309
  H     -322.947     205.245    -186.007
  H     -323.620     205.445    -187.619
  P     -327.310     207.786    -188.407
  C     -325.794     207.939    -190.505
  O     -327.056     207.596    -189.977
  O     -326.389     209.030    -188.011
  O     -328.728     207.976    -187.985
  H     -326.925     209.850    -187.975
  H     -324.980     207.584    -189.858
  H     -325.719     209.025    -190.617
  H     -325.681     207.474    -191.488
  H     -319.174     206.353    -184.631
  H     -319.089     207.719    -185.717
  H     -319.321     206.108    -186.354

 3  4  5  6  7  8  9  10  11  12  23  26  30  31  33  0
 6-311+G(2d,p)
 ****
 35  36  37  38 0
 6-311+G(2d,p)
 ****
 1  2  13  14  15  16  17  18  19  20  21  22  24  25  27  28  29 0
 3-21G
 ****
 32  34  39  40  41  42  43  44  45  46  47  48  49 0
 3-21G
 ****


