%nproc=1
%NoSave
%Mem=1900MB
#P OB98/GEN NMR

erre ene a

0 1
  C       95.129      56.046      31.896
  O       94.039      56.948      31.835
  P       92.591      56.539      32.403
  C       91.708      55.972      30.041
  O       92.018      55.484      31.342
  C       90.768      54.997      29.333
  O       91.504      53.832      28.915
  C       89.624      54.481      30.199
  O       88.610      55.460      30.345
  C       89.226      53.228      29.426
  O       88.402      53.575      28.301
  C       90.593      52.707      28.937
  N       91.116      51.621      29.759
  C       90.709      50.327      29.418
  O       89.954      50.130      28.466
  N       91.193      49.270      30.147
  C       91.995      49.486      31.146
  N       92.499      48.399      31.792
  C       92.405      50.838      31.576
  C       91.940      51.847      30.841
  O       91.685      57.684      32.696
  O       92.903      55.620      33.669
  H       88.187      52.738      27.847
  H       93.004      56.129      34.512
  H       93.063      50.965      32.422
  H       92.208      52.866      31.078
  H       90.517      52.361      27.900
  H       88.677      52.500      30.033
  H       89.997      54.198      31.192
  H       90.374      55.495      28.437
  H       92.331      47.495      31.358
  H       92.637      56.051      29.469
  H       93.327      48.463      32.369
  H       91.257      56.966      30.124
  P       88.026      55.707      31.817
  C       85.980      54.132      31.560
  O       87.223      54.370      32.201
  O       86.886      56.804      31.581
  O       89.043      56.149      32.816
  H       87.209      57.689      31.838
  H       85.690      53.094      31.746
  H       86.063      54.288      30.480
  H       85.216      54.792      31.976
  H       95.996      56.505      31.469
  H       94.889      55.159      31.348
  H       95.325      55.792      32.917

 3  4  5  6  7  8  9  10  11  12  13  23  27  28  29  30  32 0
 6-311+G(2d,p)
 ****
 34  35 0
 6-311+G(2d,p)
 ****
 1  2  14  15  16  17  18  19  20  21  22  24  25  26 0
 3-21G
 ****
 31  33  36  37  38  39  40  41  42  43  44  45  46 0
 3-21G
 ****


