%nproc=1
%NoSave
%Mem=1900MB
#P OB98/GEN NMR

erre ene a

0 1
  C      -19.401     639.717    -775.939
  O      -19.129     641.090    -775.789
  H      -19.434     639.253    -774.949
  H      -18.600     639.244    -776.528
  H      -20.364     639.547    -776.429
  P      -19.348     642.070    -777.043
  C      -21.284     643.565    -776.190
  O      -19.887     643.463    -776.466
  C      -21.550     644.614    -775.098
  O      -21.111     644.081    -773.807
  C      -20.738     645.899    -775.342
  O      -21.388     647.042    -774.788
  C      -19.450     645.635    -774.566
  O      -18.761     646.829    -774.205
  C      -19.974     644.834    -773.366
  N      -15.100     644.224    -771.981
  C      -15.686     645.243    -772.714
  N      -14.849     646.235    -773.126
  N      -16.950     645.278    -773.030
  C      -17.644     644.186    -772.615
  C      -17.169     643.104    -771.909
  C      -15.770     643.091    -771.532
  O      -15.208     642.205    -770.915
  N      -18.169     642.179    -771.681
  C      -19.236     642.706    -772.246
  N      -18.981     643.933    -772.809
  O      -20.654     641.474    -777.764
  O      -18.190     642.164    -777.996
  H      -17.904     646.562    -773.830
  H      -20.683     641.743    -778.693
  H      -14.125     644.261    -771.739
  H      -20.218     642.247    -772.279
  H      -20.305     645.512    -772.578
  H      -18.777     645.053    -775.204
  H      -13.850     646.144    -773.067
  H      -20.531     646.067    -776.396
  H      -15.192     646.814    -773.904
  H      -22.627     644.803    -775.017
  H      -21.611     642.574    -775.866
  H      -21.830     643.806    -777.104
  P      -20.744     648.485    -775.057
  C      -22.399     649.532    -776.844
  O      -21.872     649.509    -775.535
  O      -19.859     648.269    -776.377
  O      -19.925     649.028    -773.909
  H      -18.897     648.390    -776.174
  H      -23.137     650.303    -776.918
  H      -22.848     648.586    -777.065
  H      -21.611     649.725    -777.542

 6  7  8  9  10  11  12  13  14  15  26  29  33  34 0
 6-311+G(2d,p)
 ****
 36  38  39  40  41 0
 6-311+G(2d,p)
 ****
 1  2  3  4  5  16  17  18  19  20  21  22  23  24  25 0
 3-21G
 ****
 27  28  30  31  32  35  37  42  43  44  45  46  47 0
 3-21G
 ****
 48  49 0
 3-21G
 ****


