%nproc=1
%NoSave
%Mem=1900MB
#P OB98/GEN NMR

erre ene a

0 1
  C      -32.760     -49.387     220.493
  O      -34.080     -48.876     220.446
  H      -32.117     -48.646     220.972
  H      -32.392     -49.571     219.478
  H      -32.735     -50.310     221.077
  P      -35.193     -49.834     219.793
  C      -34.923     -48.844     217.413
  O      -34.742     -49.972     218.258
  C      -35.239     -49.288     215.987
  O      -34.160     -50.078     215.456
  C      -36.488     -50.151     215.861
  O      -37.659     -49.349     215.852
  C      -36.242     -50.807     214.507
  O      -36.590     -49.889     213.453
  C      -34.720     -51.040     214.520
  N      -32.060     -55.211     213.137
  C      -32.423     -54.110     212.447
  N      -33.164     -53.060     212.865
  C      -33.549     -53.226     214.144
  C      -33.254     -54.299     214.974
  C      -32.465     -55.324     214.423
  N      -32.087     -56.444     215.138
  N      -33.823     -54.123     216.220
  C      -34.400     -52.940     216.159
  N      -34.294     -52.372     214.912
  O      -36.610     -49.437     220.033
  O      -34.771     -51.253     220.405
  H      -37.565     -49.846     213.407
  H      -33.799     -51.336     220.438
  H      -32.066     -54.058     211.423
  H      -34.890     -52.442     216.988
  H      -34.273     -50.845     213.537
  H      -36.853     -51.702     214.362
  H      -36.520     -50.928     216.633
  H      -35.318     -48.386     215.366
  H      -34.025     -48.214     217.419
  H      -31.672     -57.204     214.622
  H      -32.492     -56.585     216.052
  H      -35.757     -48.260     217.820
  P      -39.053     -49.930     216.391
  C      -39.951     -50.194     213.995
  O      -39.648     -50.854     215.218
  O      -40.004     -48.909     216.917
  O      -38.639     -50.992     217.514
  H      -39.268     -50.961     218.263
  H      -40.338     -50.903     213.293
  H      -39.062     -49.750     213.600
  H      -40.682     -49.433     214.172

 6  7  8  9  10  11  12  13  14  15  25  28  32  33  34  35 0
 6-311+G(2d,p)
 ****
 36  39  40 0
 6-311+G(2d,p)
 ****
 1  2  3  4  5  16  17  18  19  20  21  22  23  24 0
 3-21G
 ****
 26  27  29  30  31  37  38  41  42  43  44  45  46  47 0
 3-21G
 ****
 48 0
 3-21G
 ****


