%nproc=1
%NoSave
%Mem=1900MB
#P OB98/GEN NMR

erre ene a

0 1
  C     -587.613     224.294    -299.635
  O     -588.316     225.426    -299.166
  H     -587.545     223.560    -298.827
  H     -586.598     224.570    -299.948
  H     -588.152     223.851    -300.479
  P     -588.492     226.645    -300.193
  C     -591.058     226.661    -300.316
  O     -589.857     226.310    -300.982
  C     -592.105     225.551    -300.492
  O     -591.547     224.309    -299.958
  C     -593.418     225.820    -299.750
  O     -594.518     225.357    -300.537
  C     -593.294     224.968    -298.488
  O     -594.577     224.621    -297.954
  C     -592.467     223.779    -298.994
  N     -593.006     221.693    -294.370
  C     -593.897     222.123    -295.273
  N     -593.681     222.663    -296.494
  C     -592.344     222.674    -296.768
  C     -591.318     222.278    -295.941
  C     -591.686     221.768    -294.689
  N     -590.763     221.347    -293.741
  N     -590.100     222.489    -296.567
  C     -590.398     223.010    -297.735
  N     -591.744     223.151    -297.902
  O     -587.310     226.936    -301.055
  O     -588.937     227.833    -299.217
  H     -595.047     224.089    -298.614
  H     -589.606     227.531    -298.571
  H     -594.955     222.041    -294.978
  H     -589.669     223.304    -298.496
  H     -593.091     223.009    -299.461
  H     -592.745     225.534    -297.719
  H     -593.557     226.881    -299.511
  H     -592.282     225.385    -301.568
  H     -591.460     227.596    -300.734
  H     -591.110     220.976    -292.868
  H     -589.786     221.375    -293.966
  H     -590.843     226.823    -299.266
  P     -594.739     225.996    -301.984
  C     -595.107     223.881    -303.430
  O     -594.226     224.957    -303.100
  O     -594.288     227.410    -302.149
  O     -596.340     225.909    -302.147
  H     -596.653     226.717    -302.627
  H     -594.653     223.265    -304.179
  H     -596.029     224.276    -303.803
  H     -595.299     223.296    -302.555

 6  7  8  9  10  11  12  13  14  15  25  28  32  33  34  35 0
 6-311+G(2d,p)
 ****
 36  39  40 0
 6-311+G(2d,p)
 ****
 1  2  3  4  5  16  17  18  19  20  21  22  23  24 0
 3-21G
 ****
 26  27  29  30  31  37  38  41  42  43  44  45  46  47 0
 3-21G
 ****
 48 0
 3-21G
 ****


