%nproc=1
%NoSave
%Mem=1900MB
#P OB98/GEN NMR

erre ene a

0 1
  C     -138.634      77.579    -166.212
  O     -138.669      78.735    -165.401
  H     -138.587      77.888    -167.260
  H     -139.536      76.982    -166.061
  H     -137.748      76.983    -165.979
  P     -138.799      78.506    -163.818
  C     -140.557      77.262    -162.367
  O     -140.299      78.006    -163.548
  C     -141.311      75.984    -162.722
  O     -140.522      75.184    -163.632
  C     -141.597      75.080    -161.532
  O     -142.696      75.535    -160.762
  C     -141.873      73.761    -162.232
  O     -143.236      73.679    -162.682
  C     -140.898      73.808    -163.428
  N     -139.737      72.948    -163.224
  C     -139.487      72.023    -164.233
  O     -140.186      71.918    -165.240
  N     -138.421      71.189    -164.029
  C     -137.625      71.165    -162.923
  O     -136.730      70.344    -162.770
  C     -137.928      72.176    -161.895
  C     -138.959      73.002    -162.085
  O     -138.780      79.995    -163.234
  O     -137.736      77.649    -163.215
  H     -137.902      80.193    -162.857
  H     -143.388      74.471    -163.234
  H     -138.231      70.504    -164.744
  H     -137.309      72.189    -161.006
  H     -139.214      73.740    -161.332
  H     -141.403      73.481    -164.346
  H     -141.709      72.912    -161.570
  H     -140.698      74.970    -160.914
  H     -142.245      76.262    -163.231
  H     -141.169      77.859    -161.684
  H     -139.606      77.031    -161.875
  P     -142.968      74.852    -159.337
  C     -144.063      72.585    -158.591
  O     -143.551      73.389    -159.637
  O     -144.240      75.683    -158.835
  O     -141.792      74.885    -158.423
  H     -144.845      75.925    -159.556
  H     -144.402      71.652    -158.991
  H     -144.881      73.090    -158.121
  H     -143.293      72.405    -157.870

 6  7  8  9  10  11  12  13  14  15  16  27  31  32  33  34  35 0
 6-311+G(2d,p)
 ****
 36  37 0
 6-311+G(2d,p)
 ****
 1  2  3  4  5  17  18  19  20  21  22  23  24  25 0
 3-21G
 ****
 26  28  29  30  38  39  40  41  42  43  44  45 0
 3-21G
 ****


