%nproc=1
%NoSave
%Mem=1900MB
#P OB98/GEN NMR

erre ene a

0 1
  C      279.809     149.446     -34.939
  O      280.700     149.669     -36.013
  H      278.896     150.020     -35.118
  H      280.251     149.777     -33.995
  H      279.548     148.385     -34.877
  P      282.166     149.028     -35.933
  C      283.579     151.194     -35.935
  O      283.157     150.053     -36.666
  C      283.773     152.398     -36.864
  O      282.469     152.968     -37.173
  C      284.628     153.520     -36.255
  O      285.299     154.183     -37.335
  C      283.561     154.418     -35.657
  O      284.078     155.682     -35.325
  C      282.496     154.350     -36.756
  N      281.194     154.811     -36.301
  C      281.028     156.193     -36.201
  O      281.957     156.952     -36.477
  N      279.825     156.684     -35.761
  C      278.894     155.862     -35.389
  N      277.730     156.411     -34.950
  C      279.049     154.392     -35.423
  C      280.212     153.939     -35.890
  O      282.281     147.612     -36.389
  O      282.569     149.177     -34.390
  H      284.466     156.121     -36.114
  H      282.502     148.311     -33.947
  H      278.250     153.752     -35.084
  H      280.421     152.876     -35.952
  H      282.794     154.950     -37.625
  H      283.173     153.986     -34.730
  H      285.355     153.155     -35.525
  H      284.198     152.046     -37.812
  H      277.670     157.423     -34.932
  H      284.526     150.941     -35.448
  H      276.944     155.875     -34.615
  H      282.842     151.441     -35.163
  P      286.818     154.686     -37.239
  C      286.327     156.994     -38.284
  O      287.083     155.789     -38.371
  O      287.826     153.582     -37.219
  O      286.890     155.528     -35.878
  H      287.787     155.449     -35.502
  H      286.595     157.642     -39.092
  H      286.535     157.479     -37.353
  H      285.283     156.765     -38.342

 6  7  8  9  10  11  12  13  14  15  16  26  30  31  32  33  35 0
 6-311+G(2d,p)
 ****
 37  38 0
 6-311+G(2d,p)
 ****
 1  2  3  4  5  17  18  19  20  21  22  23  24  25 0
 3-21G
 ****
 27  28  29  34  36  39  40  41  42  43  44  45  46 0
 3-21G
 ****


