%nproc=1
%NoSave
%Mem=1900MB
#P OB98/GEN NMR

erre ene a

0 1
  C       39.257      74.268     -23.968
  O       38.309      74.523     -22.946
  P       38.607      74.114     -21.430
  C       37.295      71.848     -21.253
  O       38.530      72.526     -21.312
  C       37.557      70.336     -21.251
  O       38.297      69.958     -22.428
  C       38.365      69.910     -20.027
  O       37.506      69.472     -18.987
  C       39.250      68.811     -20.583
  O       38.529      67.567     -20.648
  C       39.542      69.337     -22.009
  N       40.625      70.324     -22.178
  C       41.191      70.516     -23.434
  O       40.824      69.927     -24.446
  N       42.233      71.409     -23.487
  C       42.712      72.137     -22.437
  O       43.780      72.738     -22.440
  C       41.903      72.093     -21.216
  C       40.929      71.188     -21.135
  O       37.296      74.607     -20.659
  O       39.853      74.692     -20.842
  H       37.786      67.699     -21.263
  H       37.452      75.469     -20.230
  H       42.739      71.448     -24.365
  H       42.162      72.760     -20.404
  H       40.340      71.110     -20.224
  H       39.749      68.510     -22.697
  H       40.108      68.631     -19.937
  H       39.003      70.735     -19.687
  H       36.594      69.810     -21.274
  H       36.673      72.126     -22.111
  H       36.749      72.139     -20.350
  P       37.945      69.672     -17.463
  C       38.627      67.235     -17.063
  O       39.077      68.567     -17.201
  O       36.832      69.697     -16.469
  O       38.748      71.058     -17.491
  H       38.160      71.788     -17.206
  H       39.493      66.569     -17.071
  H       37.963      66.965     -17.889
  H       38.101      67.120     -16.111
  H       38.873      74.613     -24.905
  H       39.445      73.216     -24.025
  H       40.169      74.782     -23.745

 3  4  5  6  7  8  9  10  11  12  13  23  28  29  30  31  32 0
 6-311+G(2d,p)
 ****
 33  34 0
 6-311+G(2d,p)
 ****
 1  2  14  15  16  17  18  19  20  21  22  24  25  26  27 0
 3-21G
 ****
 35  36  37  38  39  40  41  42  43  44  45 0
 3-21G
 ****


