%nproc=1
%NoSave
%Mem=1900MB
#P OB98/GEN NMR

erre ene a

0 1
  C       20.226     -46.518       8.921
  O       19.613     -47.782       9.201
  P       20.377     -48.930      10.022
  C       21.304     -50.356       8.099
  O       20.388     -50.305       9.188
  C       21.074     -51.559       7.173
  O       21.057     -52.801       7.927
  C       19.768     -51.516       6.368
  O       20.040     -52.192       5.139
  C       18.832     -52.339       7.236
  O       17.689     -52.818       6.541
  C       19.782     -53.435       7.708
  N       16.577     -56.941       9.617
  C       16.939     -56.653       8.349
  N       17.825     -55.732       7.923
  C       18.395     -55.098       8.959
  C       18.134     -55.291      10.306
  C       17.165     -56.257      10.626
  N       16.757     -56.524      11.913
  N       18.890     -54.432      11.081
  C       19.586     -53.727      10.211
  N       19.326     -54.094       8.917
  O       19.915     -49.083      11.436
  O       21.912     -48.473       9.998
  H       17.177     -53.382       7.148
  H       22.287     -48.567      10.895
  H       16.447     -57.234       7.574
  H       20.273     -52.929      10.460
  H       19.920     -54.203       6.937
  H       18.478     -51.722       8.070
  H       19.401     -50.503       6.186
  H       21.934     -51.621       6.495
  H       22.322     -50.400       8.502
  H       15.990     -57.166      12.035
  H       17.089     -55.937      12.665
  H       21.214     -49.429       7.522
  P       20.548     -51.407       3.839
  C       18.385     -51.676       2.503
  O       19.755     -52.019       2.592
  O       22.031     -51.358       3.676
  O       19.926     -49.938       3.987
  H       20.418     -49.317       3.418
  H       17.812     -52.261       3.227
  H       18.025     -51.904       1.496
  H       18.235     -50.610       2.698
  H       19.545     -45.907       8.366
  H       21.116     -46.672       8.347
  H       20.475     -46.031       9.841

 3  4  5  6  7  8  9  10  11  12  22  25  29  30  31  32 0
 6-311+G(2d,p)
 ****
 33  36  37 0
 6-311+G(2d,p)
 ****
 1  2  13  14  15  16  17  18  19  20  21  23  24  26 0
 3-21G
 ****
 27  28  34  35  38  39  40  41  42  43  44  45  46  47  48 0
 3-21G
 ****


