%nproc=1
%NoSave
%Mem=1900MB
#P OB98/GEN NMR

erre ene a

0 1
  C      867.262    -215.840    -305.757
  O      867.131    -217.240    -305.610
  H      866.424    -215.353    -305.251
  H      867.245    -215.557    -306.813
  H      868.191    -215.494    -305.296
  P      868.184    -218.185    -306.366
  C      866.456    -218.457    -308.274
  O      867.798    -218.148    -307.925
  C      866.378    -219.002    -309.702
  O      867.117    -220.258    -309.757
  C      864.948    -219.294    -310.182
  O      864.928    -219.106    -311.613
  C      864.799    -220.767    -309.827
  O      863.685    -221.337    -310.467
  C      866.187    -221.273    -310.215
  N      866.484    -222.579    -309.645
  C      865.658    -223.630    -310.053
  O      864.732    -223.432    -310.851
  N      865.880    -224.888    -309.536
  C      866.797    -225.052    -308.631
  N      866.948    -226.308    -308.148
  C      867.646    -223.948    -308.128
  C      867.437    -222.755    -308.674
  O      868.354    -219.553    -305.792
  O      869.555    -217.355    -306.313
  H      863.695    -222.312    -310.374
  H      870.147    -217.749    -305.649
  H      868.380    -224.140    -307.355
  H      868.011    -221.890    -308.374
  H      866.296    -221.338    -311.309
  H      864.645    -220.882    -308.756
  H      864.204    -218.643    -309.706
  H      866.889    -218.303    -310.375
  H      866.337    -227.030    -308.508
  H      865.875    -217.536    -308.202
  H      867.608    -226.554    -307.426
  H      866.040    -219.188    -307.572
  P      864.479    -217.729    -312.293
  C      862.211    -218.641    -313.134
  O      862.871    -217.654    -312.344
  O      865.141    -217.468    -313.605
  O      864.857    -216.590    -311.235
  H      865.090    -215.773    -311.717
  H      861.153    -218.486    -313.088
  H      862.446    -219.615    -312.757
  H      862.539    -218.563    -314.150

 6  7  8  9  10  11  12  13  14  15  16  26  30  31  32  33  35 0
 6-311+G(2d,p)
 ****
 37  38 0
 6-311+G(2d,p)
 ****
 1  2  3  4  5  17  18  19  20  21  22  23  24  25 0
 3-21G
 ****
 27  28  29  34  36  39  40  41  42  43  44  45  46 0
 3-21G
 ****


