%nproc=1
%NoSave
%Mem=1900MB
#P OB98/GEN NMR

erre ene a

0 1
  C       68.756     -19.414    -122.478
  O       69.969     -19.291    -123.200
  P       70.010     -19.897    -124.688
  C       71.282     -21.995    -123.834
  O       70.147     -21.488    -124.525
  C       71.921     -23.159    -124.592
  O       71.119     -24.348    -124.390
  C       72.053     -22.927    -126.099
  O       73.280     -23.517    -126.528
  C       70.896     -23.717    -126.681
  O       71.141     -24.091    -128.036
  C       70.806     -24.890    -125.691
  N       69.491     -25.522    -125.703
  C       69.187     -26.323    -126.809
  O       69.980     -26.405    -127.747
  N       67.976     -26.968    -126.845
  C       67.102     -26.745    -125.913
  N       65.917     -27.409    -125.993
  C       67.336     -25.809    -124.796
  C       68.546     -25.257    -124.742
  O       71.454     -19.455    -125.214
  O       68.911     -19.426    -125.583
  H       71.969     -24.619    -128.061
  H       71.440     -19.297    -126.178
  H       66.559     -25.631    -124.066
  H       68.816     -24.576    -123.944
  H       71.561     -25.651    -125.924
  H       69.979     -23.116    -126.648
  H       72.039     -21.867    -126.368
  H       72.907     -23.355    -124.151
  H       65.775     -28.032    -126.778
  H       70.966     -22.359    -122.852
  H       65.176     -27.297    -125.314
  H       72.006     -21.188    -123.682
  P       73.970     -22.927    -127.850
  C       73.140     -24.900    -129.266
  O       73.096     -23.500    -129.065
  O       75.293     -23.829    -127.951
  O       74.305     -21.473    -127.883
  H       75.844     -23.522    -128.693
  H       72.403     -25.166    -130.027
  H       72.899     -25.428    -128.341
  H       74.133     -25.194    -129.620
  H       68.870     -18.971    -121.511
  H       68.509     -20.449    -122.369
  H       67.973     -18.915    -123.009

 3  4  5  6  7  8  9  10  11  12  13  21  23  27  28  29  30  32 0
 6-311+G(2d,p)
 ****
 34  35 0
 6-311+G(2d,p)
 ****
 1  2  14  15  16  17  18  19  20  22  24  25  26 0
 3-21G
 ****
 31  33  36  37  38  39  40  41  42  43  44  45  46 0
 3-21G
 ****


