%nproc=1
%NoSave
%Mem=1900MB
#P OB98/GEN NMR

erre ene a

0 1
  C      317.226    -425.371    -150.986
  O      317.258    -426.208    -149.828
  P      317.134    -425.537    -148.381
  C      314.600    -425.131    -148.192
  O      315.877    -424.535    -148.400
  C      313.882    -424.478    -147.005
  O      313.532    -423.105    -147.283
  C      312.574    -425.162    -146.641
  O      312.824    -426.390    -145.984
  C      311.903    -424.093    -145.805
  O      312.378    -424.119    -144.454
  C      312.356    -422.791    -146.505
  N      311.312    -422.183    -147.326
  C      310.683    -421.057    -146.778
  O      310.990    -420.654    -145.657
  N      309.716    -420.428    -147.520
  C      309.400    -420.877    -148.696
  N      308.435    -420.214    -149.381
  C      310.039    -422.067    -149.291
  C      310.970    -422.672    -148.559
  O      318.394    -424.966    -147.824
  O      316.606    -426.747    -147.471
  H      312.207    -425.022    -144.112
  H      316.933    -426.626    -146.556
  H      309.733    -422.406    -150.276
  H      311.478    -423.545    -148.926
  H      312.669    -422.047    -145.765
  H      310.812    -424.228    -145.758
  H      311.983    -425.345    -147.554
  H      314.563    -424.496    -146.145
  H      308.016    -419.406    -148.929
  H      314.719    -426.202    -148.013
  H      308.150    -420.456    -150.324
  H      314.009    -425.028    -149.114
  P      311.563    -427.310    -145.597
  C      311.313    -428.371    -147.955
  O      310.731    -427.565    -146.948
  O      310.621    -426.297    -144.784
  O      311.870    -428.529    -144.792
  H      310.141    -426.783    -144.086
  H      310.523    -428.717    -148.633
  H      311.799    -429.252    -147.518
  H      312.045    -427.796    -148.520
  H      317.320    -425.974    -151.865
  H      318.036    -424.673    -150.944
  H      316.298    -424.839    -151.016

 3  4  5  6  7  8  9  10  11  12  13  23  27  28  29  30  32 0
 6-311+G(2d,p)
 ****
 34  35 0
 6-311+G(2d,p)
 ****
 1  2  14  15  16  17  18  19  20  21  22  24  25  26 0
 3-21G
 ****
 31  33  36  37  38  39  40  41  42  43  44  45  46 0
 3-21G
 ****


