%nproc=1
%NoSave
%Mem=1900MB
#P OB98/GEN NMR

erre ene a

0 1
  C     -320.529      51.989    -557.527
  O     -319.878      53.234    -557.416
  H     -321.370      52.097    -558.217
  H     -320.921      51.673    -556.555
  H     -319.848      51.229    -557.921
  P     -318.621      53.375    -556.424
  C     -319.666      55.121    -554.854
  O     -319.249      53.767    -554.991
  C     -319.500      55.605    -553.413
  O     -318.166      55.277    -552.942
  C     -319.695      57.123    -553.243
  O     -320.552      57.379    -552.127
  C     -318.289      57.630    -552.939
  O     -318.287      58.860    -552.220
  C     -317.704      56.417    -552.196
  N     -316.251      56.482    -552.109
  C     -315.730      57.335    -551.130
  O     -316.483      57.979    -550.397
  N     -314.366      57.486    -551.043
  C     -313.598      56.869    -551.887
  N     -312.257      57.086    -551.762
  C     -314.105      55.984    -552.956
  C     -315.432      55.833    -553.008
  O     -317.542      54.288    -556.909
  O     -318.111      51.878    -556.185
  H     -318.738      59.539    -552.770
  H     -317.170      51.901    -555.899
  H     -313.422      55.502    -553.634
  H     -315.897      55.200    -553.756
  H     -318.112      56.352    -551.175
  H     -317.751      57.783    -553.880
  H     -320.104      57.601    -554.127
  H     -320.197      55.043    -552.774
  H     -311.949      57.707    -551.020
  H     -320.715      55.198    -555.167
  H     -311.567      56.678    -552.379
  H     -319.047      55.740    -555.514
  P     -321.952      58.098    -552.457
  C     -321.799      60.596    -551.756
  O     -321.645      59.641    -552.789
  O     -322.685      58.146    -551.031
  O     -322.769      57.370    -553.472
  H     -323.438      57.526    -551.029
  H     -321.559      61.569    -552.131
  H     -321.143      60.354    -550.946
  H     -322.811      60.587    -551.410

 6  7  8  9  10  11  12  13  14  15  16  26  30  31  32  33  35 0
 6-311+G(2d,p)
 ****
 37  38 0
 6-311+G(2d,p)
 ****
 1  2  3  4  5  17  18  19  20  21  22  23  24  25 0
 3-21G
 ****
 27  28  29  34  36  39  40  41  42  43  44  45  46 0
 3-21G
 ****


