%nproc=1
%NoSave
%Mem=1900MB
#P OB98/GEN NMR

erre ene a

0 1
  C      585.806     361.372     724.187
  O      585.586     361.397     722.796
  P      584.278     362.176     722.280
  C      585.613     363.052     720.203
  O      584.457     362.375     720.695
  C      585.419     363.350     718.718
  O      584.179     364.054     718.493
  C      586.508     364.229     718.109
  O      587.651     363.435     717.775
  C      585.809     364.821     716.902
  O      585.789     363.895     715.794
  C      584.377     365.042     717.443
  N      581.063     368.872     717.680
  C      581.040     367.699     716.907
  N      579.948     367.519     716.126
  N      582.005     366.798     716.906
  C      583.024     367.121     717.730
  C      583.174     368.256     718.528
  C      582.077     369.205     718.546
  O      582.016     370.186     719.275
  N      584.353     368.245     719.193
  C      584.935     367.086     718.838
  N      584.144     366.381     717.963
  O      584.468     363.653     722.872
  O      582.966     361.556     722.675
  H      585.380     363.063     716.083
  H      583.946     363.758     723.701
  H      580.291     369.505     717.645
  H      585.878     366.737     719.180
  H      583.619     364.874     716.674
  H      586.295     365.734     716.529
  H      579.189     368.149     716.059
  H      586.810     365.025     718.799
  H      579.918     366.687     715.553
  H      585.358     362.382     718.163
  H      586.484     362.390     720.320
  H      585.769     363.962     720.759
  P      589.076     364.173     717.719
  C      590.260     361.881     717.939
  O      590.178     363.099     717.248
  O      589.430     364.438     719.254
  O      589.074     365.463     716.946
  H      589.903     365.293     719.359
  H      590.604     361.086     717.260
  H      589.291     361.584     718.397
  H      590.991     361.975     718.752
  H      586.702     360.826     724.397
  H      584.978     360.897     724.671
  H      585.905     362.373     724.551

 3  4  5  6  7  8  9  10  11  12  23  26  30  31 0
 6-311+G(2d,p)
 ****
 33  35  36  37  38 0
 6-311+G(2d,p)
 ****
 1  2  13  14  15  16  17  18  19  20  21  22  24  25 0
 3-21G
 ****
 27  28  29  32  34  39  40  41  42  43  44  45  46  47  48  49 0
 3-21G
 ****


