%nproc=1
%NoSave
%Mem=1900MB
#P OB98/GEN NMR

erre ene a

0 1
  C      691.415    -217.190     655.249
  O      691.552    -218.530     654.835
  H      691.881    -216.537     654.495
  H      691.927    -217.033     656.199
  H      690.363    -216.911     655.341
  P      690.813    -219.677     655.676
  C      692.493    -219.518     657.627
  O      691.133    -219.401     657.220
  C      692.569    -219.974     659.090
  O      691.795    -219.075     659.911
  C      691.995    -221.355     659.328
  O      692.872    -222.373     658.886
  C      691.766    -221.311     660.835
  O      692.976    -221.579     661.546
  C      691.328    -219.843     661.042
  N      689.881    -219.728     661.213
  C      689.393    -219.849     662.520
  O      690.110    -220.034     663.496
  N      688.037    -219.808     662.644
  C      687.140    -219.790     661.623
  O      685.939    -220.017     661.770
  C      687.703    -219.596     660.276
  C      689.029    -219.582     660.141
  O      691.057    -221.074     655.218
  O      689.255    -219.284     655.556
  H      688.835    -219.860     654.892
  H      693.641    -220.962     661.209
  H      687.678    -219.948     663.594
  H      687.014    -219.518     659.442
  H      689.475    -219.475     659.154
  H      691.821    -219.426     661.940
  H      691.025    -222.037     661.146
  H      691.016    -221.452     658.836
  H      693.621    -219.919     659.406
  H      692.974    -218.538     657.524
  H      692.992    -220.243     656.971
  P      692.305    -223.654     658.096
  C      691.661    -225.635     659.611
  O      691.245    -224.400     659.064
  O      693.343    -224.539     657.498
  O      691.371    -223.019     656.972
  H      691.597    -223.416     656.109
  H      690.883    -226.031     660.230
  H      692.543    -225.486     660.198
  H      691.872    -226.323     658.819

 6  7  8  9  10  11  12  13  14  15  16  27  31  32  33  34  35 0
 6-311+G(2d,p)
 ****
 36  37 0
 6-311+G(2d,p)
 ****
 1  2  3  4  5  17  18  19  20  21  22  23  24  25 0
 3-21G
 ****
 26  28  29  30  38  39  40  41  42  43  44  45 0
 3-21G
 ****


