%nproc=1
%NoSave
%Mem=1900MB
#P OB98/GEN NMR

erre ene a

0 1
  C       45.188     122.004     -39.728
  O       46.517     122.381     -40.099
  P       47.726     121.514     -39.501
  C       49.147     121.511     -37.319
  O       48.247     122.222     -38.163
  C       49.929     122.489     -36.439
  O       50.923     123.197     -37.203
  C       49.056     123.570     -35.825
  O       48.338     123.061     -34.717
  C       50.082     124.635     -35.456
  O       50.594     124.443     -34.127
  C       51.194     124.427     -36.508
  N       51.308     125.543     -37.433
  C       51.959     126.679     -36.942
  O       52.375     126.704     -35.782
  N       52.095     127.765     -37.769
  C       51.603     127.727     -38.969
  N       51.766     128.835     -39.740
  C       50.887     126.557     -39.515
  C       50.775     125.510     -38.700
  O       48.913     121.772     -40.542
  O       47.418     120.058     -39.367
  H       49.832     124.588     -33.528
  H       49.477     120.982     -40.615
  H       50.487     126.576     -40.517
  H       50.262     124.607     -39.016
  H       52.166     124.299     -36.014
  H       49.643     125.637     -35.482
  H       48.364     123.967     -36.578
  H       50.432     121.918     -35.647
  H       52.260     129.621     -39.333
  H       49.838     120.918     -37.920
  H       51.418     128.917     -40.684
  H       48.574     120.805     -36.709
  P       46.740     123.108     -34.779
  C       44.959     124.821     -34.082
  O       46.341     124.525     -34.141
  O       46.329     122.093     -33.607
  O       46.092     122.756     -36.075
  H       45.365     121.958     -33.603
  H       44.815     125.699     -33.448
  H       44.403     123.984     -33.651
  H       44.584     125.046     -35.083
  H       44.487     122.663     -40.196
  H       45.083     122.067     -38.665
  H       45.000     121.000     -40.046

 3  4  5  6  7  8  9  10  11  12  13  21  23  27  28  29  30  32 0
 6-311+G(2d,p)
 ****
 34  35 0
 6-311+G(2d,p)
 ****
 1  2  14  15  16  17  18  19  20  22  24  25  26 0
 3-21G
 ****
 31  33  36  37  38  39  40  41  42  43  44  45  46 0
 3-21G
 ****


