%nproc=1
%NoSave
%Mem=1900MB
#P OB98/GEN NMR

erre ene a

0 1
  C      -62.894     319.082      98.776
  O      -62.892     317.681      98.958
  H      -63.425     319.312      97.848
  H      -61.870     319.459      98.700
  H      -63.407     319.568      99.611
  P      -62.056     317.125     100.215
  C      -62.892     314.685      99.818
  O      -61.792     315.585      99.837
  C      -62.465     313.351      99.215
  O      -62.339     313.460      97.778
  C      -61.111     312.842      99.702
  O      -61.160     312.261     100.994
  C      -60.822     311.805      98.628
  O      -61.637     310.641      98.851
  C      -61.270     312.564      97.362
  N      -60.181     313.320      96.733
  C      -59.043     312.594      96.363
  O      -58.977     311.382      96.566
  N      -57.984     313.266      95.801
  C      -58.060     314.545      95.602
  N      -56.976     315.155      95.043
  C      -59.240     315.348      95.963
  C      -60.253     314.681      96.517
  O      -63.155     317.019     101.373
  O      -60.836     317.899     100.586
  H      -61.444     310.021      98.121
  H      -62.777     316.546     102.154
  H      -59.254     316.414      95.789
  H      -61.158     315.204      96.806
  H      -61.690     311.876      96.616
  H      -59.786     311.471      98.617
  H      -60.343     313.623      99.653
  H      -63.261     312.622      99.419
  H      -56.160     314.587      94.863
  H      -63.692     315.133      99.216
  H      -56.882     316.162      94.989
  H      -63.262     314.522     100.835
  P      -59.900     312.502     101.959
  C      -61.028     312.219     104.286
  O      -60.167     311.666     103.298
  O      -60.081     314.021     102.424
  O      -58.566     312.271     101.316
  H      -59.216     314.456     102.543
  H      -61.102     311.544     105.113
  H      -61.999     312.376     103.865
  H      -60.630     313.153     104.623

 6  7  8  9  10  11  12  13  14  15  16  26  30  31  32  33  35 0
 6-311+G(2d,p)
 ****
 37  38 0
 6-311+G(2d,p)
 ****
 1  2  3  4  5  17  18  19  20  21  22  23  24  25 0
 3-21G
 ****
 27  28  29  34  36  39  40  41  42  43  44  45  46 0
 3-21G
 ****


