%nproc=1
%NoSave
%Mem=1900MB
#P OB98/GEN NMR

erre ene a

0 1
  C       79.725    1010.315    -217.224
  O       79.016    1009.482    -216.301
  P       78.771    1010.005    -214.811
  C       76.255    1010.432    -215.182
  O       77.495    1010.970    -214.773
  C       75.207    1011.551    -215.331
  O       75.738    1012.659    -216.096
  C       73.963    1011.099    -216.095
  O       73.114    1010.195    -215.435
  C       73.355    1012.431    -216.512
  O       72.582    1013.026    -215.467
  C       74.626    1013.289    -216.787
  N       74.905    1013.444    -218.213
  C       74.798    1014.723    -218.737
  O       74.436    1015.700    -218.060
  N       75.073    1014.857    -220.069
  C       75.401    1013.861    -220.930
  O       75.614    1014.025    -222.120
  C       75.482    1012.510    -220.313
  C       75.238    1012.363    -219.013
  O       79.983    1010.507    -214.085
  O       78.199    1008.681    -214.066
  H       72.188    1013.841    -215.814
  H       78.606    1008.641    -213.182
  H       75.001    1015.797    -220.448
  H       75.749    1011.678    -220.975
  H       75.292    1011.379    -218.554
  H       74.522    1014.289    -216.357
  H       72.702    1012.311    -217.378
  H       74.298    1010.599    -217.007
  H       74.973    1011.930    -214.335
  H       75.920    1009.693    -214.447
  H       76.390    1009.885    -216.127
  P       73.336    1008.593    -215.462
  C       73.836    1008.430    -212.926
  O       74.294    1008.201    -214.238
  O       73.634    1007.976    -216.788
  O       71.908    1008.066    -214.956
  H       71.729    1007.217    -215.392
  H       74.615    1008.112    -212.216
  H       72.938    1007.851    -212.724
  H       73.633    1009.504    -212.774
  H       79.800    1009.817    -218.168
  H       80.706    1010.512    -216.845
  H       79.199    1011.238    -217.348

 3  4  5  6  7  8  9  10  11  12  13  23  28  29  30  31  32 0
 6-311+G(2d,p)
 ****
 33  34 0
 6-311+G(2d,p)
 ****
 1  2  14  15  16  17  18  19  20  21  22  24  25  26  27 0
 3-21G
 ****
 35  36  37  38  39  40  41  42  43  44  45 0
 3-21G
 ****


