%nproc=1
%NoSave
%Mem=1900MB
#P OB98/GEN NMR

erre ene a

0 1
  C      -85.790    -485.552     -22.857
  O      -85.769    -484.265     -23.488
  P      -84.777    -483.097     -23.013
  C      -82.463    -483.950     -23.765
  O      -83.528    -483.038     -24.022
  C      -81.095    -483.293     -23.960
  O      -80.041    -484.140     -23.463
  C      -80.739    -482.986     -25.413
  O      -81.402    -481.817     -25.852
  C      -79.219    -482.874     -25.331
  O      -78.834    -481.576     -24.849
  C      -78.878    -483.953     -24.292
  N      -75.188    -487.492     -24.468
  C      -75.322    -486.358     -23.745
  N      -76.330    -485.464     -23.756
  C      -77.293    -485.848     -24.609
  C      -77.295    -486.978     -25.423
  C      -76.178    -487.822     -25.331
  N      -76.041    -488.968     -26.081
  N      -78.442    -487.025     -26.186
  C      -79.126    -485.953     -25.835
  N      -78.477    -485.213     -24.884
  O      -84.392    -483.167     -21.567
  O      -85.566    -481.737     -23.319
  H      -77.876    -481.612     -24.656
  H      -85.277    -481.041     -22.702
  H      -74.499    -486.138     -23.063
  H      -80.094    -485.677     -26.231
  H      -78.066    -483.634     -23.625
  H      -78.731    -483.020     -26.297
  H      -81.006    -483.835     -26.047
  H      -81.080    -482.371     -23.361
  H      -82.561    -484.801     -24.453
  H      -75.193    -489.503     -25.987
  H      -76.753    -489.200     -26.763
  H      -82.560    -484.319     -22.738
  P      -82.503    -481.903     -27.010
  C      -84.541    -483.204     -26.152
  O      -83.938    -481.933     -26.294
  O      -82.284    -482.964     -28.032
  O      -82.477    -480.441     -27.673
  H      -82.722    -480.514     -28.615
  H      -85.008    -483.498     -27.090
  H      -85.307    -483.140     -25.379
  H      -83.803    -483.955     -25.851
  H      -86.523    -486.170     -23.332
  H      -86.037    -485.438     -21.822
  H      -84.826    -486.009     -22.946

 3  4  5  6  7  8  9  10  11  12  22  25  29  30  31  32 0
 6-311+G(2d,p)
 ****
 33  36  37 0
 6-311+G(2d,p)
 ****
 1  2  13  14  15  16  17  18  19  20  21  23  24  26 0
 3-21G
 ****
 27  28  34  35  38  39  40  41  42  43  44  45  46  47  48 0
 3-21G
 ****


