%nproc=1
%NoSave
%Mem=1900MB
#P OB98/GEN NMR

erre ene a

0 1
  C     -389.588    -153.727     268.021
  O     -390.527    -153.986     269.043
  H     -388.942    -154.601     267.913
  H     -388.972    -152.867     268.297
  H     -390.080    -153.534     267.064
  P     -391.849    -153.087     269.117
  C     -391.601    -152.627     271.643
  O     -392.418    -153.174     270.615
  C     -391.924    -153.232     273.012
  O     -393.335    -153.106     273.294
  C     -391.613    -154.730     273.072
  O     -390.266    -155.059     273.364
  C     -392.545    -155.196     274.189
  O     -391.933    -155.010     275.476
  C     -393.753    -154.269     274.029
  N     -398.812    -154.953     273.771
  C     -398.076    -154.243     274.701
  N     -398.772    -153.693     275.720
  N     -396.777    -154.102     274.638
  C     -396.207    -154.786     273.617
  C     -396.828    -155.535     272.645
  C     -398.273    -155.640     272.689
  O     -398.971    -156.262     271.896
  N     -395.918    -156.076     271.768
  C     -394.747    -155.719     272.255
  N     -394.870    -154.912     273.361
  O     -392.929    -153.937     268.287
  O     -391.716    -151.701     268.561
  H     -391.218    -155.667     275.572
  H     -393.607    -153.344     267.917
  H     -399.810    -155.006     273.853
  H     -393.786    -155.994     271.832
  H     -394.118    -153.917     275.000
  H     -392.780    -156.258     274.099
  H     -399.753    -153.873     275.873
  H     -391.920    -155.221     272.142
  H     -398.252    -153.399     276.549
  H     -391.385    -152.678     273.789
  H     -391.791    -151.553     271.658
  H     -390.544    -152.767     271.402
  P     -389.659    -156.456     272.870
  C     -388.442    -157.105     275.079
  O     -388.329    -156.715     273.728
  O     -389.110    -156.105     271.411
  O     -390.626    -157.589     272.845
  H     -389.765    -156.357     270.732
  H     -387.465    -157.234     275.496
  H     -388.980    -158.028     275.140
  H     -388.967    -156.349     275.626

 6  7  8  9  10  11  12  13  14  15  26  29  33  34 0
 6-311+G(2d,p)
 ****
 36  38  39  40  41 0
 6-311+G(2d,p)
 ****
 1  2  3  4  5  16  17  18  19  20  21  22  23  24  25 0
 3-21G
 ****
 27  28  30  31  32  35  37  42  43  44  45  46  47 0
 3-21G
 ****
 48  49 0
 3-21G
 ****


