%nproc=1
%NoSave
%Mem=1900MB
#P OB98/GEN NMR

erre ene a

0 1
  C      -55.029      71.374      61.827
  O      -55.509      72.456      62.606
  P      -57.101      72.615      62.741
  C      -56.921      75.211      62.842
  O      -57.472      74.073      62.189
  C      -56.441      76.228      61.808
  O      -55.769      75.555      60.725
  C      -57.552      77.037      61.155
  O      -58.037      78.044      62.030
  C      -56.826      77.563      59.921
  O      -55.995      78.680      60.275
  C      -55.952      76.359      59.529
  N      -58.036      76.389      54.852
  C      -57.562      77.384      55.634
  N      -57.043      77.299      56.877
  C      -57.032      76.026      57.301
  C      -57.502      74.912      56.626
  C      -58.021      75.126      55.340
  N      -58.509      74.108      54.548
  N      -57.347      73.773      57.389
  C      -56.782      74.192      58.503
  N      -56.558      75.543      58.492
  O      -57.320      72.749      64.319
  O      -57.898      71.489      62.158
  H      -56.586      79.444      60.429
  H      -58.162      72.336      64.590
  H      -57.603      78.381      55.205
  H      -56.512      73.560      59.338
  H      -54.959      76.658      59.176
  H      -57.506      77.897      59.130
  H      -58.378      76.383      60.851
  H      -55.721      76.895      62.299
  H      -56.068      74.904      63.456
  H      -58.999      74.368      53.704
  H      -58.627      73.195      54.967
  H      -57.681      75.647      63.497
  P      -59.598      78.006      62.401
  C      -60.030      79.511      60.364
  O      -60.332      78.280      60.997
  O      -59.782      79.395      63.170
  O      -60.038      76.790      63.139
  H      -59.389      80.139      62.679
  H      -60.549      79.545      59.403
  H      -58.953      79.594      60.190
  H      -60.374      80.345      60.982
  H      -53.959      71.386      61.821
  H      -55.392      71.467      60.825
  H      -55.373      70.452      62.247

 3  4  5  6  7  8  9  10  11  12  22  25  29  30  31  32 0
 6-311+G(2d,p)
 ****
 33  36  37 0
 6-311+G(2d,p)
 ****
 1  2  13  14  15  16  17  18  19  20  21  23  24  26 0
 3-21G
 ****
 27  28  34  35  38  39  40  41  42  43  44  45  46  47  48 0
 3-21G
 ****


