%nproc=1
%NoSave
%Mem=1900MB
#P OB98/GEN NMR

erre ene a

0 1
  C      -28.966     -99.934     -21.540
  O      -29.168     -99.347     -20.271
  P      -28.832     -97.819     -19.949
  C      -30.066     -97.763     -17.662
  O      -28.828     -97.631     -18.351
  C      -29.930     -97.572     -16.143
  O      -29.177     -98.669     -15.587
  C      -29.131     -96.301     -15.842
  O      -29.773     -95.041     -15.829
  C      -28.331     -96.626     -14.587
  O      -28.945     -96.124     -13.399
  C      -28.301     -98.156     -14.570
  N      -23.718     -98.947     -12.554
  C      -24.895     -98.590     -11.926
  N      -24.782     -98.214     -10.632
  N      -26.059     -98.578     -12.520
  C      -25.994     -98.885     -13.838
  C      -24.893     -99.269     -14.566
  C      -23.619     -99.316     -13.887
  O      -22.541     -99.547     -14.429
  N      -25.191     -99.432     -15.895
  C      -26.465     -99.108     -15.981
  N      -26.984     -98.731     -14.766
  O      -29.517     -96.788     -20.789
  O      -27.259     -97.759     -20.301
  H      -28.400     -96.399     -12.641
  H      -27.073     -96.871     -20.663
  H      -22.835     -98.861     -12.063
  H      -27.043     -99.095     -16.897
  H      -28.677     -98.539     -13.613
  H      -27.334     -96.171     -14.635
  H      -23.887     -98.071     -10.186
  H      -28.379     -96.205     -16.637
  H      -25.589     -97.785     -10.191
  H      -30.908     -97.604     -15.654
  H      -30.465     -98.756     -17.892
  H      -30.779     -97.033     -18.052
  P      -29.115     -93.636     -16.215
  C      -31.386     -92.642     -15.586
  O      -29.981     -92.470     -15.541
  O      -29.437     -93.463     -17.775
  O      -27.643     -93.543     -15.976
  H      -28.801     -92.840     -18.175
  H      -31.870     -91.682     -15.386
  H      -31.692     -93.360     -14.818
  H      -31.706     -93.003     -16.567
  H      -29.263    -100.961     -21.509
  H      -27.930     -99.870     -21.802
  H      -29.551     -99.415     -22.270

 3  4  5  6  7  8  9  10  11  12  23  26  30  31 0
 6-311+G(2d,p)
 ****
 33  35  36  37  38 0
 6-311+G(2d,p)
 ****
 1  2  13  14  15  16  17  18  19  20  21  22  24  25 0
 3-21G
 ****
 27  28  29  32  34  39  40  41  42  43  44  45  46  47  48  49 0
 3-21G
 ****


