%nproc=1
%NoSave
%Mem=1900MB
#P OB98/GEN NMR

erre ene a

0 1
  C     -106.318     100.623    -152.006
  O     -105.253     101.399    -152.573
  P     -103.905     101.496    -151.700
  C     -103.063     102.866    -149.658
  O     -104.139     102.591    -150.545
  C     -103.507     103.725    -148.472
  O     -104.139     104.931    -148.966
  C     -104.506     103.051    -147.529
  O     -104.213     103.453    -146.182
  C     -105.832     103.682    -147.912
  O     -106.792     103.603    -146.860
  C     -105.376     105.096    -148.257
  N     -109.734     107.669    -148.238
  C     -108.993     107.175    -147.181
  N     -109.502     107.378    -145.946
  N     -107.860     106.542    -147.320
  C     -107.456     106.444    -148.613
  C     -108.092     106.897    -149.744
  C     -109.368     107.559    -149.576
  O     -110.095     107.972    -150.478
  N     -107.370     106.605    -150.879
  C     -106.306     105.966    -150.432
  N     -106.318     105.836    -149.063
  O     -102.873     102.200    -152.701
  O     -103.395     100.175    -151.231
  H     -106.364     103.955    -146.056
  H     -102.081     101.642    -152.807
  H     -110.610     108.133    -148.079
  H     -105.517     105.561    -151.048
  H     -105.169     105.681    -147.352
  H     -106.242     103.163    -148.788
  H     -110.337     107.912    -145.763
  H     -104.525     101.958    -147.590
  H     -108.954     107.062    -145.155
  H     -102.609     104.034    -147.919
  H     -102.268     103.388    -150.204
  H     -102.652     101.915    -149.305
  P     -103.761     102.297    -145.168
  C     -104.915     101.075    -143.183
  O     -105.014     102.051    -144.200
  O     -102.690     103.021    -144.228
  O     -103.204     101.083    -145.837
  H     -102.056     102.372    -143.872
  H     -103.891     100.721    -143.046
  H     -105.550     100.225    -143.440
  H     -105.266     101.505    -142.241
  H     -107.157     100.630    -152.670
  H     -106.604     101.044    -151.065
  H     -105.987      99.616    -151.860

 3  4  5  6  7  8  9  10  11  12  23  26  30  31  33  0
 6-311+G(2d,p)
 ****
 35  36  37  38 0
 6-311+G(2d,p)
 ****
 1  2  13  14  15  16  17  18  19  20  21  22  24  25  27  28  29 0
 3-21G
 ****
 32  34  39  40  41  42  43  44  45  46  47  48  49 0
 3-21G
 ****


