%nproc=1
%NoSave
%Mem=1900MB
#P OB98/GEN NMR

erre ene a

0 1
  C      411.174    -131.979    -135.093
  O      411.092    -130.643    -135.551
  H      411.172    -132.649    -135.963
  H      410.307    -132.213    -134.472
  H      412.094    -132.145    -134.527
  P      411.350    -129.454    -134.508
  C      409.371    -128.067    -135.416
  O      410.772    -128.118    -135.190
  C      409.059    -127.331    -136.725
  O      409.766    -126.052    -136.715
  C      409.505    -128.093    -137.995
  O      408.574    -127.759    -139.039
  C      410.858    -127.463    -138.246
  O      411.344    -127.757    -139.538
  C      410.536    -125.998    -137.938
  N      411.723    -125.156    -137.783
  C      411.956    -124.206    -138.772
  O      411.223    -124.023    -139.739
  N      413.099    -123.457    -138.611
  C      413.997    -123.581    -137.590
  O      414.999    -122.870    -137.485
  C      413.707    -124.622    -136.597
  C      412.591    -125.350    -136.735
  O      412.740    -129.339    -133.983
  O      410.290    -129.743    -133.336
  H      410.743    -130.210    -132.605
  H      411.564    -128.713    -139.605
  H      413.292    -122.765    -139.318
  H      414.409    -124.754    -135.782
  H      412.346    -126.132    -136.018
  H      409.886    -125.572    -138.712
  H      411.600    -127.856    -137.541
  H      409.525    -129.178    -137.855
  H      407.987    -127.102    -136.759
  H      408.903    -127.541    -134.577
  H      408.974    -129.094    -135.462
  P      407.227    -128.586    -139.314
  C      407.665    -128.994    -141.823
  O      406.804    -128.409    -140.855
  O      406.121    -128.268    -138.358
  O      407.637    -130.128    -139.198
  H      406.904    -130.627    -138.805
  H      407.278    -128.808    -142.803
  H      407.724    -130.049    -141.657
  H      408.641    -128.565    -141.738

 6  7  8  9  10  11  12  13  14  15  16  27  31  32  33  34  35 0
 6-311+G(2d,p)
 ****
 36  37 0
 6-311+G(2d,p)
 ****
 1  2  3  4  5  17  18  19  20  21  22  23  24  25 0
 3-21G
 ****
 26  28  29  30  38  39  40  41  42  43  44  45 0
 3-21G
 ****


