%nproc=1
%NoSave
%Mem=1900MB
#P OB98/GEN NMR

erre ene a

0 1
  C      245.479    -187.458     289.559
  O      245.987    -188.754     289.298
  P      247.276    -188.954     288.368
  C      246.399    -190.178     286.265
  O      246.720    -188.915     286.859
  C      246.954    -190.264     284.842
  O      246.248    -189.359     283.967
  C      248.426    -189.889     284.726
  O      249.248    -190.946     285.176
  C      248.533    -189.591     283.230
  O      248.701    -190.801     282.474
  C      247.166    -188.944     282.932
  N      247.248    -187.489     282.826
  C      247.130    -186.963     281.533
  O      246.999    -187.716     280.564
  N      247.213    -185.595     281.376
  C      247.419    -184.841     282.400
  N      247.504    -183.499     282.173
  C      247.578    -185.358     283.775
  C      247.484    -186.681     283.914
  O      248.132    -190.128     288.703
  O      248.038    -187.546     288.495
  H      249.370    -191.329     282.958
  H      248.487    -187.459     289.375
  H      247.756    -184.683     284.602
  H      247.584    -187.147     284.888
  H      246.758    -189.332     281.987
  H      249.389    -188.949     282.997
  H      248.624    -188.969     285.293
  H      246.792    -191.287     284.477
  H      247.415    -183.190     281.213
  H      245.312    -190.279     286.235
  H      247.695    -182.818     282.901
  H      246.803    -190.979     286.889
  P      250.557    -190.629     286.043
  C      252.163    -190.784     284.045
  O      251.638    -189.957     285.058
  O      251.068    -191.761     286.875
  O      250.104    -189.400     286.973
  H      250.422    -189.557     287.879
  H      252.609    -190.148     283.266
  H      251.384    -191.400     283.595
  H      252.942    -191.427     284.462
  H      244.622    -187.532     290.195
  H      245.199    -186.992     288.637
  H      246.232    -186.870     290.042

 3  4  5  6  7  8  9  10  11  12  13  23  27  28  29  30  32 0
 6-311+G(2d,p)
 ****
 34  35 0
 6-311+G(2d,p)
 ****
 1  2  14  15  16  17  18  19  20  21  22  24  25  26 0
 3-21G
 ****
 31  33  36  37  38  39  40  41  42  43  44  45  46 0
 3-21G
 ****


