%nproc=1
%NoSave
%Mem=1900MB
#P OB98/GEN NMR

erre ene a

0 1
  C      611.652     125.738     106.712
  O      611.436     125.635     108.102
  P      612.606     125.680     109.188
  C      612.774     123.067     109.054
  O      613.455     124.318     109.080
  C      613.750     121.911     109.297
  O      613.011     120.663     109.232
  C      614.828     121.839     108.195
  O      616.140     121.555     108.673
  C      614.232     120.864     107.190
  O      615.178     120.287     106.318
  C      613.488     119.894     108.109
  N      611.529     115.424     106.672
  C      612.614     115.672     107.494
  N      613.374     114.603     107.813
  N      612.933     116.879     107.915
  C      612.149     117.859     107.417
  C      611.049     117.732     106.604
  C      610.679     116.397     106.167
  O      609.795     116.142     105.355
  N      610.536     118.944     106.241
  C      611.351     119.820     106.811
  N      612.364     119.202     107.505
  O      612.232     126.169     110.552
  O      613.613     126.756     108.538
  H      614.720     119.639     105.763
  H      614.027     127.243     109.278
  H      611.381     114.488     106.314
  H      611.269     120.895     106.729
  H      614.150     119.113     108.489
  H      613.523     121.423     106.571
  H      613.234     113.708     107.387
  H      614.947     122.819     107.707
  H      614.304     114.801     108.196
  H      614.179     121.997     110.298
  H      612.321     122.983     108.063
  H      611.972     123.052     109.794
  P      617.541     121.998     108.061
  C      617.807     119.656     107.054
  O      617.884     121.042     106.811
  O      618.628     121.547     109.158
  O      617.673     123.459     107.775
  H      619.321     122.229     109.222
  H      618.315     119.131     106.231
  H      616.765     119.332     107.073
  H      618.294     119.399     107.994
  H      610.714     125.681     106.200
  H      612.284     124.937     106.389
  H      612.121     126.674     106.492

 3  4  5  6  7  8  9  10  11  12  23  26  30  31 0
 6-311+G(2d,p)
 ****
 33  35  36  37  38 0
 6-311+G(2d,p)
 ****
 1  2  13  14  15  16  17  18  19  20  21  22  24  25 0
 3-21G
 ****
 27  28  29  32  34  39  40  41  42  43  44  45  46  47  48  49 0
 3-21G
 ****


