%nproc=1
%NoSave
%Mem=1900MB
#P OB98/GEN NMR

erre ene a

0 1
  C       -5.670     856.021    -166.120
  O       -4.563     855.791    -165.256
  P       -3.359     854.896    -165.823
  C       -1.572     856.760    -165.955
  O       -2.414     855.876    -166.678
  C       -0.264     857.010    -166.708
  O       -0.575     857.484    -168.054
  C        0.669     858.033    -166.057
  O        2.013     857.549    -166.102
  C        0.578     859.238    -166.981
  O        1.744     860.053    -166.915
  C        0.370     858.531    -168.331
  N        1.694     860.892    -172.610
  C        2.352     859.888    -171.904
  N        3.568     859.507    -172.388
  N        1.874     859.313    -170.829
  C        0.653     859.774    -170.484
  C       -0.105     860.754    -171.103
  C        0.469     861.411    -172.255
  O       -0.023     862.370    -172.857
  N       -1.317     860.926    -170.471
  C       -1.284     860.069    -169.454
  N       -0.095     859.374    -169.396
  O       -4.079     853.984    -166.941
  O       -2.662     854.045    -164.804
  H        1.786     860.402    -166.002
  H       -3.934     853.044    -166.743
  H        2.111     861.301    -173.423
  H       -2.083     859.924    -168.746
  H        1.315     858.063    -168.658
  H       -0.293     859.833    -166.708
  H        3.965     859.875    -173.234
  H        0.391     858.285    -165.023
  H        4.041     858.766    -171.908
  H        0.256     856.034    -166.836
  H       -1.343     856.322    -164.970
  H       -2.096     857.714    -165.810
  P        2.988     858.046    -164.916
  C        2.413     855.873    -163.585
  O        2.486     857.285    -163.593
  O        2.539     859.559    -164.678
  O        4.442     857.914    -165.231
  H        3.264     860.081    -164.284
  H        2.892     855.443    -164.479
  H        1.369     855.563    -163.557
  H        2.921     855.487    -162.695
  H       -6.394     856.628    -165.618
  H       -6.114     855.085    -166.388
  H       -5.335     856.523    -167.004

 3  4  5  6  7  8  9  10  11  12  23  26  30  31  33  0
 6-311+G(2d,p)
 ****
 35  36  37  38 0
 6-311+G(2d,p)
 ****
 1  2  13  14  15  16  17  18  19  20  21  22  24  25  27  28  29 0
 3-21G
 ****
 32  34  39  40  41  42  43  44  45  46  47  48  49 0
 3-21G
 ****


