%nproc=1
%NoSave
%Mem=1900MB
#P OB98/GEN NMR

erre ene a

0 1
  C     -455.208    -231.923     476.113
  O     -456.064    -230.794     476.326
  P     -457.259    -230.570     475.276
  C     -455.815    -229.230     473.551
  O     -456.561    -230.405     473.836
  C     -454.762    -229.502     472.469
  O     -455.426    -229.696     471.179
  C     -453.723    -228.379     472.294
  O     -452.473    -229.020     472.004
  C     -454.235    -227.630     471.075
  O     -453.194    -226.885     470.441
  C     -454.795    -228.797     470.244
  N     -455.731    -228.357     469.211
  C     -455.186    -227.861     468.032
  O     -453.978    -227.722     467.861
  N     -456.087    -227.493     467.069
  C     -457.441    -227.499     467.190
  O     -458.198    -227.159     466.290
  C     -457.960    -227.922     468.508
  C     -457.099    -228.319     469.432
  O     -457.743    -229.093     475.655
  O     -458.316    -231.627     475.360
  H     -457.016    -228.499     475.913
  H     -453.558    -226.455     469.634
  H     -455.711    -227.171     466.182
  H     -459.037    -227.886     468.659
  H     -457.448    -228.624     470.421
  H     -453.983    -229.350     469.753
  H     -455.027    -226.943     471.362
  H     -453.625    -227.751     473.186
  H     -454.257    -230.443     472.724
  H     -455.301    -228.882     474.458
  H     -456.505    -228.424     473.242
  P     -451.298    -228.921     473.104
  C     -449.800    -227.024     472.075
  O     -450.738    -227.421     473.054
  O     -450.143    -229.753     472.352
  O     -451.634    -229.476     474.448
  H     -450.033    -229.496     471.428
  H     -449.731    -225.938     472.063
  H     -450.109    -227.368     471.081
  H     -448.810    -227.445     472.309
  H     -454.461    -231.954     476.878
  H     -454.736    -231.837     475.157
  H     -455.788    -232.821     476.145

 3  4  5  6  7  8  9  10  11  12  13  24  28  29  30  31  32 0
 6-311+G(2d,p)
 ****
 33  34 0
 6-311+G(2d,p)
 ****
 1  2  14  15  16  17  18  19  20  21  22  23  25  26  27 0
 3-21G
 ****
 35  36  37  38  39  40  41  42  43  44  45 0
 3-21G
 ****


