%nproc=1
%NoSave
%Mem=1900MB
#P OB98/GEN NMR

erre ene a

0 1
  C      259.920    -382.686    -225.759
  O      260.607    -383.535    -224.860
  H      259.012    -382.293    -225.293
  H      260.576    -381.851    -226.020
  H      259.665    -383.234    -226.670
  P      259.772    -384.771    -224.271
  C      257.786    -384.648    -222.609
  O      259.125    -384.269    -222.891
  C      257.232    -383.809    -221.464
  O      257.126    -382.428    -221.864
  C      255.832    -384.204    -221.007
  O      255.851    -385.350    -220.163
  C      255.425    -382.954    -220.240
  O      256.007    -382.981    -218.923
  C      256.063    -381.832    -221.074
  N      254.574    -377.319    -223.018
  C      255.552    -377.645    -222.143
  N      255.883    -378.860    -221.661
  C      255.095    -379.811    -222.191
  C      254.061    -379.632    -223.094
  C      253.803    -378.315    -223.508
  N      252.793    -377.991    -224.391
  N      253.487    -380.839    -223.423
  C      254.162    -381.737    -222.732
  N      255.136    -381.162    -221.965
  O      260.907    -385.797    -223.793
  O      258.823    -385.415    -225.226
  H      255.492    -383.630    -218.404
  H      260.599    -386.707    -223.953
  H      256.150    -376.814    -221.778
  H      253.978    -382.804    -222.758
  H      256.532    -381.072    -220.434
  H      254.344    -382.857    -220.118
  H      255.158    -384.341    -221.858
  H      257.945    -383.865    -220.630
  H      257.762    -385.706    -222.325
  H      252.783    -377.074    -224.798
  H      252.224    -378.748    -224.761
  H      257.182    -384.510    -223.513
  P      254.465    -386.134    -219.953
  C      252.052    -385.351    -219.409
  O      253.440    -385.047    -219.364
  O      254.771    -387.075    -218.692
  O      253.994    -386.919    -221.129
  H      254.185    -387.854    -218.710
  H      251.496    -384.541    -218.985
  H      251.864    -386.244    -218.850
  H      251.752    -385.497    -220.426

 6  7  8  9  10  11  12  13  14  15  25  28  32  33  34  35 0
 6-311+G(2d,p)
 ****
 36  39  40 0
 6-311+G(2d,p)
 ****
 1  2  3  4  5  16  17  18  19  20  21  22  23  24 0
 3-21G
 ****
 26  27  29  30  31  37  38  41  42  43  44  45  46  47  48 0
 3-21G
 ****


