%nproc=1
%NoSave
%Mem=1900MB
#P OB98/GEN NMR

erre ene a

0 1
  C       -7.073       6.989     -18.489
  O       -7.211       7.065     -19.896
  P       -5.991       7.583     -20.794
  C       -3.783       6.391     -21.485
  O       -4.741       6.632     -20.477
  C       -2.403       6.102     -20.880
  O       -1.923       7.323     -20.266
  C       -2.394       5.049     -19.778
  O       -1.055       4.582     -19.606
  C       -2.808       5.860     -18.571
  O       -2.446       5.229     -17.346
  C       -2.132       7.229     -18.837
  N       -2.968       8.347     -18.367
  C       -3.363       8.320     -17.033
  O       -2.983       7.460     -16.240
  N       -4.278       9.267     -16.661
  C       -4.852      10.179     -17.496
  O       -5.873      10.801     -17.230
  C       -4.222      10.312     -18.819
  C       -3.340       9.386     -19.200
  O       -5.602       8.970     -20.098
  O       -6.304       7.756     -22.240
  H       -2.935       5.697     -16.629
  H       -6.027       9.713     -20.566
  H       -4.671       9.157     -15.734
  H       -4.546      11.122     -19.458
  H       -2.898       9.428     -20.191
  H       -1.160       7.299     -18.334
  H       -3.899       5.975     -18.573
  H       -3.069       4.207     -19.955
  H       -1.706       5.830     -21.681
  H       -3.738       7.255     -22.153
  H       -4.087       5.538     -22.101
  P       -0.843       3.134     -18.951
  C       -1.327       0.725     -19.694
  O       -1.611       2.095     -19.899
  O       -1.150       3.024     -17.495
  O        0.699       2.821     -19.259
  H        1.017       2.118     -18.663
  H       -2.206       0.138     -19.972
  H       -1.078       0.519     -18.649
  H       -0.488       0.433     -20.331
  H       -7.983       6.624     -18.061
  H       -6.860       7.962     -18.098
  H       -6.272       6.323     -18.245

 3  4  5  6  7  8  9  10  11  12  13  23  28  29  30  31  32 0
 6-311+G(2d,p)
 ****
 33  34 0
 6-311+G(2d,p)
 ****
 1  2  14  15  16  17  18  19  20  21  22  24  25  26  27 0
 3-21G
 ****
 35  36  37  38  39  40  41  42  43  44  45 0
 3-21G
 ****


