%nproc=1
%NoSave
%Mem=1900MB
#P OB98/GEN NMR

erre ene a

0 1
  C      -19.804      97.604      27.873
  O      -20.851      97.073      27.089
  H      -19.301      98.387      27.301
  H      -19.079      96.820      28.102
  H      -20.184      98.040      28.799
  P      -21.931      96.117      27.785
  C      -23.809      97.872      27.590
  O      -23.366      96.572      27.229
  C      -25.078      98.249      26.819
  O      -24.734      98.450      25.418
  C      -26.180      97.180      26.872
  O      -27.440      97.860      26.798
  C      -25.922      96.408      25.595
  O      -27.039      95.630      25.225
  C      -25.545      97.546      24.643
  N      -24.852      97.069      23.448
  C      -25.641      96.797      22.339
  O      -26.867      96.909      22.340
  N      -24.984      96.345      21.229
  C      -23.647      96.085      21.146
  O      -23.114      95.648      20.133
  C      -22.867      96.349      22.365
  C      -23.494      96.825      23.443
  O      -21.842      96.013      29.270
  O      -21.718      94.698      27.075
  H      -27.182      94.911      25.876
  H      -21.943      93.976      27.692
  H      -25.541      96.153      20.412
  H      -21.806      96.144      22.335
  H      -22.946      97.031      24.356
  H      -26.442      98.092      24.318
  H      -25.077      95.723      25.722
  H      -26.134      96.558      27.768
  H      -25.444      99.212      27.196
  H      -23.008      98.579      27.353
  H      -24.006      97.906      28.666
  P      -28.772      97.265      27.465
  C      -28.928      99.338      28.985
  O      -29.621      98.475      28.089
  O      -28.531      96.135      28.412
  O      -29.666      96.783      26.227
  H      -30.244      96.049      26.505
  H      -29.594     100.100      29.333
  H      -28.102      99.790      28.477
  H      -28.568      98.772      29.818

 6  7  8  9  10  11  12  13  14  15  16  26  31  32  33  34  35 0
 6-311+G(2d,p)
 ****
 36  37 0
 6-311+G(2d,p)
 ****
 1  2  3  4  5  17  18  19  20  21  22  23  24  25 0
 3-21G
 ****
 27  28  29  30  38  39  40  41  42  43  44  45 0
 3-21G
 ****


