%nproc=1
%NoSave
%Mem=1900MB
#P OB98/GEN NMR

erre ene a

0 1
  C       51.900    -371.028    -255.255
  O       52.461    -371.160    -253.971
  H       50.827    -370.841    -255.149
  H       52.030    -371.952    -255.826
  H       52.351    -370.187    -255.791
  P       54.026    -371.484    -253.822
  C       53.535    -373.959    -253.349
  O       54.177    -373.037    -254.222
  C       53.915    -375.401    -253.697
  O       53.240    -375.800    -254.918
  C       55.424    -375.609    -253.916
  O       55.859    -376.773    -253.206
  C       55.538    -375.858    -255.413
  O       56.699    -376.600    -255.773
  C       54.197    -376.547    -255.692
  N       53.874    -376.560    -257.114
  C       54.369    -377.648    -257.844
  O       55.033    -378.527    -257.284
  N       54.151    -377.688    -259.199
  C       53.538    -376.703    -259.779
  N       53.378    -376.795    -261.127
  C       53.025    -375.523    -259.051
  C       53.218    -375.523    -257.731
  O       54.621    -371.112    -252.504
  O       54.718    -370.737    -255.056
  H       56.716    -376.699    -256.749
  H       55.669    -370.589    -254.850
  H       52.524    -374.730    -259.582
  H       52.877    -374.700    -257.113
  H       54.198    -377.583    -255.321
  H       55.574    -374.891    -255.936
  H       56.025    -374.754    -253.605
  H       53.537    -376.062    -252.907
  H       53.756    -377.611    -261.589
  H       52.456    -373.819    -253.424
  H       52.941    -376.078    -261.690
  H       53.859    -373.749    -252.325
  P       56.484    -376.517    -251.747
  C       59.000    -376.434    -252.407
  O       57.864    -375.714    -251.936
  O       56.947    -377.973    -251.284
  O       55.524    -375.908    -250.786
  H       56.373    -378.293    -250.563
  H       59.837    -375.771    -252.481
  H       58.786    -376.848    -253.370
  H       59.230    -377.224    -251.723

 6  7  8  9  10  11  12  13  14  15  16  26  30  31  32  33  35 0
 6-311+G(2d,p)
 ****
 37  38 0
 6-311+G(2d,p)
 ****
 1  2  3  4  5  17  18  19  20  21  22  23  24  25 0
 3-21G
 ****
 27  28  29  34  36  39  40  41  42  43  44  45  46 0
 3-21G
 ****


