%nproc=1
%NoSave
%Mem=1900MB
#P OB98/GEN NMR

erre ene a

0 1
  C     -242.918     152.052    -334.253
  O     -243.077     151.276    -333.075
  P     -243.780     151.894    -331.776
  C     -241.805     151.539    -330.163
  O     -243.131     151.149    -330.508
  C     -241.137     150.465    -329.303
  O     -241.645     150.567    -327.951
  C     -241.400     149.048    -329.788
  O     -240.229     148.257    -329.564
  C     -242.504     148.539    -328.875
  O     -242.473     147.101    -328.773
  C     -242.190     149.287    -327.576
  N     -245.471     147.189    -324.234
  C     -244.368     146.700    -324.839
  N     -243.558     147.302    -325.733
  C     -243.956     148.568    -325.951
  C     -245.058     149.210    -325.407
  C     -245.842     148.464    -324.508
  N     -246.961     148.971    -323.884
  N     -245.162     150.500    -325.894
  C     -244.134     150.637    -326.695
  N     -243.365     149.501    -326.757
  O     -245.270     151.891    -331.799
  O     -243.188     153.376    -331.665
  H     -242.139     146.760    -329.626
  H     -243.878     153.997    -331.367
  H     -244.100     145.680    -324.568
  H     -243.900     151.527    -327.260
  H     -241.437     148.760    -326.977
  H     -243.478     148.823    -329.283
  H     -241.684     149.001    -330.847
  H     -240.057     150.673    -329.267
  H     -241.857     152.473    -329.598
  H     -247.387     148.408    -323.165
  H     -247.135     149.967    -323.953
  H     -241.231     151.718    -331.080
  P     -239.592     147.554    -330.871
  C     -239.926     145.192    -329.826
  O     -239.031     146.149    -330.340
  O     -238.631     148.452    -331.577
  O     -240.914     147.195    -331.704
  H     -241.697     147.105    -331.119
  H     -239.357     144.322    -329.486
  H     -240.622     144.866    -330.607
  H     -240.487     145.601    -328.980
  H     -242.430     151.466    -335.003
  H     -242.326     152.916    -334.034
  H     -243.879     152.360    -334.610

 3  4  5  6  7  8  9  10  11  12  22  25  29  30  31  32 0
 6-311+G(2d,p)
 ****
 33  36  37 0
 6-311+G(2d,p)
 ****
 1  2  13  14  15  16  17  18  19  20  21  23  24  26 0
 3-21G
 ****
 27  28  34  35  38  39  40  41  42  43  44  45  46  47  48 0
 3-21G
 ****


