%nproc=1
%NoSave
%Mem=1900MB
#P OB98/GEN NMR

erre ene a

0 1
  C      326.142    -898.000    -701.684
  O      326.671    -896.930    -702.450
  H      325.552    -897.570    -700.865
  H      326.935    -898.600    -701.253
  H      325.493    -898.600    -702.303
  P      327.713    -897.270    -703.627
  C      326.020    -896.250    -705.283
  O      326.836    -897.400    -704.974
  C      325.738    -896.210    -706.793
  O      327.039    -896.120    -707.471
  C      324.984    -897.420    -707.366
  O      324.097    -896.960    -708.355
  C      326.111    -898.250    -707.952
  O      325.637    -899.140    -708.945
  C      327.102    -897.190    -708.432
  N      328.458    -897.730    -708.585
  C      328.758    -898.310    -709.783
  O      327.950    -898.350    -710.716
  N      330.005    -898.900    -709.942
  C      330.830    -898.960    -708.940
  N      331.988    -899.600    -709.126
  C      330.509    -898.380    -707.605
  C      329.332    -897.780    -707.504
  O      328.633    -898.430    -703.375
  O      328.529    -895.900    -703.819
  H      324.921    -899.690    -708.584
  H      329.322    -895.900    -703.248
  H      331.208    -898.440    -706.790
  H      328.974    -897.330    -706.551
  H      326.796    -896.800    -709.407
  H      326.580    -898.860    -707.143
  H      324.444    -897.990    -706.561
  H      325.212    -895.270    -707.004
  H      332.182    -900.000    -710.062
  H      326.532    -895.380    -704.951
  H      332.701    -899.730    -708.398
  H      325.068    -896.340    -704.754
  P      322.542    -896.770    -708.021
  C      322.489    -894.230    -708.411
  O      322.330    -895.270    -707.442
  O      321.923    -897.850    -707.207
  O      321.852    -896.690    -709.481
  H      320.934    -897.050    -709.411
  H      322.332    -893.280    -707.944
  H      321.775    -894.363    -709.197
  H      323.478    -894.269    -708.817

 6  7  8  9  10  11  12  13  14  15  16  26  30  31  32  33  35 0
 6-311+G(2d,p)
 ****
 37  38 0
 6-311+G(2d,p)
 ****
 1  2  3  4  5  17  18  19  20  21  22  23  24  25 0
 3-21G
 ****
 27  28  29  34  36  39  40  41  42  43  44  45  46 0
 3-21G
 ****


