%nproc=1
%NoSave
%Mem=1900MB
#P OB98/GEN NMR

erre ene a

0 1
  C     -477.500    -759.673      64.043
  O     -476.245    -760.275      64.352
  P     -475.038    -759.289      64.733
  C     -473.757    -761.196      65.925
  O     -473.714    -760.169      64.943
  C     -474.363    -762.485      65.361
  O     -473.707    -762.868      64.121
  C     -474.255    -763.680      66.308
  O     -475.417    -764.501      66.115
  C     -473.042    -764.422      65.786
  O     -473.029    -765.782      66.229
  C     -473.232    -764.215      64.285
  N     -470.620    -767.501      61.374
  C     -471.829    -767.583      61.962
  N     -472.447    -766.672      62.743
  C     -471.694    -765.556      62.854
  C     -470.436    -765.337      62.318
  C     -469.894    -766.374      61.546
  N     -468.644    -766.306      60.964
  N     -469.963    -764.096      62.690
  C     -470.919    -763.582      63.444
  N     -471.994    -764.417      63.543
  O     -475.411    -758.806      66.212
  O     -474.893    -758.129      63.804
  H     -473.880    -766.193      65.976
  H     -475.705    -757.876      66.196
  H     -472.376    -768.511      61.790
  H     -470.878    -762.624      63.935
  H     -473.973    -764.902      63.853
  H     -472.124    -763.936      66.136
  H     -474.163    -763.418      67.370
  H     -475.421    -762.294      65.130
  H     -474.345    -760.869      66.785
  H     -468.311    -767.103      60.452
  H     -468.073    -765.489      61.121
  H     -472.740    -761.369      66.305
  P     -476.282    -764.831      67.422
  C     -478.624    -764.638      66.315
  O     -477.650    -765.482      66.901
  O     -476.732    -763.386      67.958
  O     -475.550    -765.613      68.460
  H     -476.900    -763.422      68.915
  H     -479.058    -765.152      65.450
  H     -478.198    -763.686      65.977
  H     -479.409    -764.441      67.045
  H     -478.213    -760.435      63.808
  H     -477.385    -759.021      63.203
  H     -477.843    -759.111      64.886

 3  4  5  6  7  8  9  10  11  12  22  25  29  30  31  32 0
 6-311+G(2d,p)
 ****
 33  36  37 0
 6-311+G(2d,p)
 ****
 1  2  13  14  15  16  17  18  19  20  21  23  24  26 0
 3-21G
 ****
 27  28  34  35  38  39  40  41  42  43  44  45  46  47  48 0
 3-21G
 ****


