%nproc=1
%NoSave
%Mem=1900MB
#P OB98/GEN NMR

erre ene a

0 1
  C      -38.777     423.840    -105.949
  O      -39.107     422.474    -105.800
  H      -38.508     424.052    -106.987
  H      -39.647     424.446    -105.681
  H      -37.944     424.103    -105.288
  P      -37.969     421.410    -106.179
  C      -37.137     420.402    -108.429
  O      -37.939     421.381    -107.784
  C      -36.778     420.888    -109.831
  O      -36.251     422.234    -109.770
  C      -35.704     420.051    -110.516
  O      -36.226     418.880    -111.116
  C      -35.207     421.033    -111.563
  O      -36.144     421.100    -112.652
  C      -35.209     422.352    -110.775
  N      -31.627     425.913    -109.924
  C      -32.809     425.961    -110.578
  N      -33.715     424.974    -110.742
  C      -33.307     423.849    -110.135
  C      -32.132     423.652    -109.426
  C      -31.263     424.752    -109.334
  N      -30.043     424.699    -108.694
  N      -32.055     422.353    -108.967
  C      -33.169     421.782    -109.377
  N      -33.945     422.636    -110.116
  O      -38.626     419.998    -105.808
  O      -36.637     421.620    -105.540
  H      -36.980     421.457    -112.290
  H      -37.945     419.300    -105.788
  H      -33.057     426.914    -111.032
  H      -33.457     420.759    -109.176
  H      -35.448     423.219    -111.404
  H      -34.242     420.745    -111.989
  H      -34.882     419.816    -109.831
  H      -37.696     420.918    -110.432
  H      -37.700     419.467    -108.499
  H      -29.429     425.492    -108.809
  H      -29.699     423.806    -108.379
  H      -36.228     420.234    -107.846
  P      -35.214     417.655    -111.354
  C      -33.175     417.281    -112.922
  O      -34.371     418.011    -112.673
  O      -36.184     416.481    -111.844
  O      -34.415     417.266    -110.153
  H      -35.849     415.610    -111.555
  H      -32.728     417.628    -113.830
  H      -33.405     416.240    -113.013
  H      -32.493     417.426    -112.110

 6  7  8  9  10  11  12  13  14  15  25  28  32  33  34  35 0
 6-311+G(2d,p)
 ****
 36  39  40 0
 6-311+G(2d,p)
 ****
 1  2  3  4  5  16  17  18  19  20  21  22  23  24 0
 3-21G
 ****
 26  27  29  30  31  37  38  41  42  43  44  45  46  47 0
 3-21G
 ****
 48 0
 3-21G
 ****


