%nproc=1
%NoSave
%Mem=1900MB
#P OB98/GEN NMR

erre ene a

0 1
  C     -138.099    -172.182     -33.419
  O     -138.228    -170.886     -32.872
  H     -137.053    -172.341     -33.703
  H     -138.722    -172.279     -34.315
  H     -138.380    -172.942     -32.687
  P     -139.640    -170.444     -32.251
  C     -142.037    -170.173     -33.157
  O     -140.654    -170.270     -33.480
  C     -142.849    -169.918     -34.427
  O     -142.645    -170.990     -35.376
  C     -144.356    -169.851     -34.194
  O     -144.723    -168.623     -33.601
  C     -144.870    -170.071     -35.608
  O     -144.785    -168.860     -36.382
  C     -143.868    -171.124     -36.139
  N     -144.389    -172.489     -36.061
  C     -145.220    -172.891     -37.103
  O     -145.523    -172.157     -38.046
  N     -145.738    -174.157     -37.000
  C     -145.577    -175.002     -35.939
  O     -146.234    -176.031     -35.791
  C     -144.627    -174.558     -34.908
  C     -144.100    -173.335     -35.006
  O     -139.599    -169.298     -31.296
  O     -140.169    -171.783     -31.538
  H     -140.008    -171.721     -30.575
  H     -145.376    -168.214     -35.944
  H     -146.382    -174.439     -37.725
  H     -144.423    -175.227     -34.078
  H     -143.416    -172.976     -34.242
  H     -143.612    -170.915     -37.186
  H     -145.913    -170.389     -35.630
  H     -144.678    -170.694     -33.565
  H     -142.486    -168.987     -34.882
  H     -142.177    -169.337     -32.462
  H     -142.359    -171.098     -32.670
  P     -146.014    -168.497     -32.661
  C     -148.450    -169.269     -32.854
  O     -147.311    -168.783     -33.558
  O     -146.084    -167.250     -31.842
  O     -145.931    -169.798     -31.718
  H     -145.993    -169.515     -30.785
  H     -149.254    -169.426     -33.542
  H     -148.746    -168.553     -32.116
  H     -148.205    -170.194     -32.375

 6  7  8  9  10  11  12  13  14  15  16  27  31  32  33  34  35 0
 6-311+G(2d,p)
 ****
 36  37 0
 6-311+G(2d,p)
 ****
 1  2  3  4  5  17  18  19  20  21  22  23  24  25 0
 3-21G
 ****
 26  28  29  30  38  39  40  41  42  43  44  45 0
 3-21G
 ****


