%nproc=1
%NoSave
%Mem=1900MB
#P OB98/GEN NMR

erre ene a

0 1
  C      353.878     355.506     120.585
  O      354.878     354.602     120.162
  H      353.662     356.196     119.765
  H      354.223     356.084     121.446
  H      352.959     354.968     120.839
  P      355.428     353.520     121.208
  C      354.102     351.309     121.097
  O      354.172     352.621     121.646
  C      352.664     350.779     121.181
  O      352.181     351.024     122.525
  C      351.724     351.482     120.192
  O      350.997     350.571     119.368
  C      350.917     352.420     121.083
  O      349.638     352.752     120.588
  C      350.910     351.696     122.433
  N      350.708     352.578     123.580
  C      349.705     352.236     124.482
  O      348.996     351.234     124.405
  N      349.538     353.101     125.533
  C      350.242     354.244     125.757
  O      350.047     354.976     126.720
  C      351.271     354.565     124.756
  C      351.453     353.732     123.729
  O      356.232     354.065     122.341
  O      356.291     352.515     120.308
  H      349.158     351.916     120.414
  H      357.240     352.707     120.422
  H      348.821     352.856     126.200
  H      351.844     355.470     124.897
  H      352.207     353.937     122.973
  H      350.126     350.938     122.459
  H      351.476     353.357     121.186
  H      352.289     352.079     119.470
  H      352.679     349.694     121.027
  H      354.776     350.668     121.673
  H      354.431     351.328     120.053
  P      350.699     350.796     117.814
  C      352.695     351.193     116.165
  O      351.968     350.291     116.982
  O      350.138     352.129     117.451
  O      349.568     349.690     117.492
  H      348.991     350.073     116.800
  H      353.502     350.674     115.692
  H      353.085     351.986     116.769
  H      352.046     351.600     115.418

 6  7  8  9  10  11  12  13  14  15  16  26  31  32  33  34  35 0
 6-311+G(2d,p)
 ****
 36  37 0
 6-311+G(2d,p)
 ****
 1  2  3  4  5  17  18  19  20  21  22  23  24  25 0
 3-21G
 ****
 27  28  29  30  38  39  40  41  42  43  44  45 0
 3-21G
 ****


