%nproc=1
%NoSave
%Mem=1900MB
#P OB98/GEN NMR

erre ene a

0 1
  C       72.737     -62.205      42.934
  O       73.608     -62.353      41.830
  H       72.629     -63.175      43.427
  H       71.750     -61.870      42.603
  H       73.151     -61.492      43.652
  P       73.870     -61.085      40.888
  C       71.741     -61.341      39.440
  O       72.428     -60.567      40.417
  C       70.470     -60.627      38.986
  O       69.574     -60.441      40.099
  C       70.710     -59.236      38.409
  O       71.246     -59.321      37.105
  C       69.311     -58.651      38.504
  O       68.477     -59.132      37.438
  C       68.837     -59.217      39.865
  N       69.013     -58.287      40.976
  C       67.931     -58.170      41.858
  O       66.903     -58.818      41.667
  N       68.045     -57.305      42.919
  C       69.147     -56.653      43.112
  N       69.195     -55.817      44.184
  C       70.321     -56.773      42.226
  C       70.183     -57.590      41.183
  O       74.851     -61.281      39.773
  O       74.351     -59.944      41.902
  H       67.585     -58.768      37.605
  H       75.325     -59.921      41.954
  H       71.224     -56.217      42.430
  H       70.999     -57.736      40.483
  H       67.775     -59.492      39.817
  H       69.311     -57.562      38.442
  H       71.370     -58.660      39.069
  H       69.962     -61.272      38.257
  H       68.371     -55.783      44.774
  H       71.488     -62.299      39.908
  H       70.045     -55.389      44.521
  H       72.389     -61.540      38.579
  P       72.149     -58.147      36.489
  C       70.336     -57.653      34.733
  O       71.121     -57.128      35.792
  O       73.272     -58.600      35.619
  O       72.629     -57.326      37.776
  H       73.362     -57.807      38.237
  H       69.694     -56.887      34.351
  H       69.743     -58.466      35.098
  H       70.979     -58.003      33.952

 6  7  8  9  10  11  12  13  14  15  16  26  30  31  32  33  35 0
 6-311+G(2d,p)
 ****
 37  38 0
 6-311+G(2d,p)
 ****
 1  2  3  4  5  17  18  19  20  21  22  23  24  25 0
 3-21G
 ****
 27  28  29  34  36  39  40  41  42  43  44  45  46 0
 3-21G
 ****


