%nproc=1
%NoSave
%Mem=1900MB
#P OB98/GEN NMR

erre ene a

0 1
  C     -209.930      38.726     569.541
  O     -208.962      38.072     568.752
  H     -210.811      38.083     569.614
  H     -210.220      39.667     569.068
  H     -209.555      38.922     570.547
  P     -207.463      38.636     568.745
  C     -207.138      39.141     566.234
  O     -206.831      38.275     567.315
  C     -206.810      38.474     564.892
  O     -205.474      37.916     564.959
  C     -207.765      37.313     564.594
  O     -207.926      37.098     563.194
  C     -207.038      36.122     565.196
  O     -207.441      34.874     564.628
  C     -205.581      36.482     564.922
  N     -200.729      35.342     565.989
  C     -201.285      35.773     564.801
  N     -200.430      35.921     563.758
  N     -202.560      36.013     564.640
  C     -203.302      35.752     565.744
  C     -202.870      35.303     566.970
  C     -201.453      35.074     567.143
  O     -200.912      34.670     568.170
  N     -203.920      35.147     567.843
  C     -204.980      35.498     567.145
  N     -204.655      35.897     565.873
  O     -206.682      37.641     569.727
  O     -207.307      40.064     569.169
  H     -206.907      34.177     565.052
  H     -205.878      38.069     570.072
  H     -199.738      35.200     566.067
  H     -205.998      35.495     567.516
  H     -205.282      36.150     563.922
  H     -207.274      36.080     566.262
  H     -199.491      35.559     563.790
  H     -208.743      37.446     565.048
  H     -200.854      35.927     562.826
  H     -206.801      39.224     564.091
  H     -206.542      40.046     566.371
  H     -208.189      39.438     566.271
  P     -209.228      37.693     562.475
  C     -209.018      35.977     560.472
  O     -209.221      37.296     560.928
  O     -208.972      39.270     562.465
  O     -210.520      37.338     563.144
  H     -209.636      39.724     563.017
  H     -209.056      35.959     559.403
  H     -209.783      35.341     560.867
  H     -208.061      35.629     560.801

 6  7  8  9  10  11  12  13  14  15  26  29  33  34 0
 6-311+G(2d,p)
 ****
 36  38  39  40  41 0
 6-311+G(2d,p)
 ****
 1  2  3  4  5  16  17  18  19  20  21  22  23  24  25 0
 3-21G
 ****
 27  28  30  31  32  35  37  42  43  44  45  46  47 0
 3-21G
 ****
 48  49 0
 3-21G
 ****


