%nproc=1
%NoSave
%Mem=1900MB
#P OB98/GEN NMR

erre ene a

0 1
  C     -540.882     -37.972     -20.536
  O     -540.776     -39.399     -20.596
  P     -541.758     -40.247     -19.650
  C     -542.676     -41.792     -21.538
  O     -541.970     -41.695     -20.306
  C     -542.040     -42.868     -22.435
  O     -540.730     -42.464     -22.877
  C     -541.834     -44.187     -21.716
  O     -543.055     -44.906     -21.631
  C     -540.784     -44.869     -22.598
  O     -541.390     -45.645     -23.644
  C     -540.004     -43.672     -23.186
  N     -538.627     -43.600     -22.708
  C     -537.720     -44.467     -23.321
  O     -538.101     -45.250     -24.199
  N     -536.408     -44.449     -22.906
  C     -536.048     -43.651     -21.943
  N     -534.737     -43.678     -21.574
  C     -536.986     -42.736     -21.252
  C     -538.250     -42.764     -21.673
  O     -543.179     -39.533     -19.862
  O     -541.355     -40.262     -18.210
  H     -542.038     -45.049     -24.077
  H     -543.704     -39.581     -19.042
  H     -536.638     -42.098     -20.451
  H     -539.006     -42.129     -21.223
  H     -539.970     -43.738     -24.287
  H     -540.152     -45.552     -22.014
  H     -541.417     -44.017     -20.713
  H     -542.684     -43.011     -23.318
  H     -534.127     -44.313     -22.066
  H     -542.667     -40.832     -22.057
  H     -534.353     -43.107     -20.834
  H     -543.727     -42.028     -21.332
  P     -543.611     -45.252     -20.163
  C     -545.886     -44.394     -21.026
  O     -545.201     -45.438     -20.360
  O     -543.536     -43.820     -19.437
  O     -542.904     -46.307     -19.388
  H     -543.763     -43.910     -18.493
  H     -546.891     -44.730     -21.270
  H     -545.365     -44.111     -21.946
  H     -545.959     -43.525     -20.361
  H     -540.177     -37.533     -21.211
  H     -540.676     -37.641     -19.540
  H     -541.872     -37.676     -20.813

 3  4  5  6  7  8  9  10  11  12  13  21  23  27  28  29  30  32 0
 6-311+G(2d,p)
 ****
 34  35 0
 6-311+G(2d,p)
 ****
 1  2  14  15  16  17  18  19  20  22  24  25  26 0
 3-21G
 ****
 31  33  36  37  38  39  40  41  42  43  44  45  46 0
 3-21G
 ****


