%nproc=1
%NoSave
%Mem=1900MB
#P OB98/GEN NMR

erre ene a

0 1
  C     -374.564     107.974     371.784
  O     -374.012     108.489     370.589
  H     -374.533     108.754     372.548
  H     -373.979     107.119     372.132
  H     -375.607     107.674     371.632
  P     -374.075     107.597     369.259
  C     -371.986     106.215     369.884
  O     -373.382     106.194     369.604
  C     -371.385     104.835     369.633
  O     -372.083     103.837     370.410
  C     -371.487     104.374     368.182
  O     -370.528     105.019     367.370
  C     -371.285     102.878     368.343
  O     -369.889     102.558     368.462
  C     -372.031     102.597     369.665
  N     -373.373     102.053     369.457
  C     -373.461     100.677     369.272
  O     -372.483      99.935     369.243
  N     -374.726     100.180     369.083
  C     -375.869     100.921     368.954
  O     -376.962     100.432     368.699
  C     -375.711     102.367     369.138
  C     -374.489     102.863     369.377
  O     -373.583     108.256     368.014
  O     -375.626     107.206     369.140
  H     -369.834     101.584     368.501
  H     -376.041     107.739     368.436
  H     -374.807      99.186     368.933
  H     -376.594     102.989     369.057
  H     -374.355     103.927     369.507
  H     -371.465     101.887     370.280
  H     -371.668     102.313     367.494
  H     -372.502     104.551     367.803
  H     -370.336     104.851     369.960
  H     -371.842     106.488     370.934
  H     -371.508     106.971     369.250
  P     -370.951     105.592     365.938
  C     -369.675     104.212     364.182
  O     -370.898     104.378     364.892
  O     -370.235     106.830     365.503
  O     -372.521     105.869     366.084
  H     -372.695     106.817     365.938
  H     -369.758     103.377     363.518
  H     -368.880     104.038     364.877
  H     -369.467     105.097     363.617

 6  7  8  9  10  11  12  13  14  15  16  26  31  32  33  34  35 0
 6-311+G(2d,p)
 ****
 36  37 0
 6-311+G(2d,p)
 ****
 1  2  3  4  5  17  18  19  20  21  22  23  24  25 0
 3-21G
 ****
 27  28  29  30  38  39  40  41  42  43  44  45 0
 3-21G
 ****


