%nproc=1
%NoSave
%Mem=1900MB
#P OB98/GEN NMR

erre ene a

0 1
  C       14.742      86.253       0.176
  O       15.333      86.518      -1.080
  H       15.531      86.005       0.892
  H       14.055      85.406       0.102
  H       14.204      87.135       0.533
  P       14.323      86.802      -2.296
  C       14.482      84.302      -3.025
  O       13.659      85.366      -2.574
  C       13.768      83.530      -4.129
  O       12.546      82.944      -3.632
  C       13.353      84.388      -5.319
  O       14.428      84.668      -6.200
  C       12.318      83.483      -5.960
  O       12.979      82.416      -6.664
  C       11.575      82.948      -4.714
  N       10.407      83.752      -4.353
  C        9.153      83.208      -4.655
  O        9.062      82.113      -5.207
  N        8.026      83.936      -4.355
  C        8.138      85.098      -3.792
  N        6.991      85.780      -3.530
  C        9.437      85.700      -3.441
  C       10.515      84.983      -3.747
  O       15.293      86.986      -3.556
  O       13.354      87.918      -2.097
  H       12.281      81.856      -7.051
  H       14.757      87.042      -4.384
  H        9.481      86.678      -2.983
  H       11.505      85.364      -3.520
  H       11.252      81.911      -4.865
  H       11.683      84.000      -6.682
  H       12.859      85.312      -4.998
  H       14.422      82.705      -4.442
  H        6.119      85.370      -3.839
  H       14.690      83.642      -2.176
  H        6.986      86.757      -3.264
  H       15.427      84.696      -3.411
  P       14.521      86.149      -6.814
  C       13.017      85.526      -8.837
  O       13.209      86.369      -7.710
  O       15.688      86.017      -7.898
  O       14.802      87.229      -5.816
  H       16.249      86.816      -7.913
  H       12.106      85.792      -9.330
  H       12.964      84.507      -8.515
  H       13.837      85.644      -9.514

 6  7  8  9  10  11  12  13  14  15  16  26  30  31  32  33  35 0
 6-311+G(2d,p)
 ****
 37  38 0
 6-311+G(2d,p)
 ****
 1  2  3  4  5  17  18  19  20  21  22  23  24  25 0
 3-21G
 ****
 27  28  29  34  36  39  40  41  42  43  44  45  46 0
 3-21G
 ****


