%nproc=1
%NoSave
%Mem=1900MB
#P OB98/GEN NMR

erre ene a

0 1
  C      521.420    -522.312    -404.884
  O      520.615    -521.985    -405.996
  H      521.880    -523.286    -405.058
  H      520.803    -522.367    -403.983
  H      522.208    -521.566    -404.749
  P      519.914    -520.540    -405.987
  C      520.016    -520.790    -408.565
  O      519.268    -520.336    -407.442
  C      519.840    -519.843    -409.749
  O      518.427    -519.819    -410.127
  C      520.260    -518.393    -409.469
  O      520.817    -517.851    -410.676
  C      518.934    -517.695    -409.209
  O      519.007    -516.283    -409.409
  C      518.043    -518.431    -410.206
  N      513.863    -516.091    -411.749
  C      515.133    -516.109    -412.293
  N      515.320    -515.399    -413.423
  N      516.131    -516.774    -411.772
  C      515.792    -517.474    -410.659
  C      514.579    -517.530    -410.019
  C      513.488    -516.769    -410.591
  O      512.348    -516.691    -410.143
  N      514.648    -518.326    -408.903
  C      515.901    -518.748    -408.872
  N      516.635    -518.254    -409.916
  O      521.165    -519.543    -405.987
  O      518.994    -520.285    -404.840
  H      519.708    -515.934    -408.817
  H      521.397    -519.291    -405.072
  H      513.135    -515.552    -412.180
  H      516.322    -519.398    -408.118
  H      518.199    -518.093    -411.238
  H      518.607    -517.881    -408.181
  H      514.587    -514.898    -413.905
  H      520.977    -518.279    -408.649
  H      516.236    -515.435    -413.861
  H      520.388    -520.251    -410.610
  H      519.663    -521.790    -408.847
  H      521.076    -520.850    -408.290
  P      522.412    -517.783    -410.804
  C      522.252    -518.063    -413.384
  O      522.774    -517.321    -412.293
  O      522.838    -519.331    -410.802
  O      523.087    -517.024    -409.709
  H      523.740    -519.427    -410.445
  H      522.585    -517.628    -414.303
  H      521.183    -518.046    -413.348
  H      522.595    -519.075    -413.324

 6  7  8  9  10  11  12  13  14  15  26  29  33  34 0
 6-311+G(2d,p)
 ****
 36  38  39  40  41 0
 6-311+G(2d,p)
 ****
 1  2  3  4  5  16  17  18  19  20  21  22  23  24  25 0
 3-21G
 ****
 27  28  30  31  32  35  37  42  43  44  45  46  47 0
 3-21G
 ****
 48  49 0
 3-21G
 ****


