%nproc=1
%NoSave
%Mem=1900MB
#P OB98/GEN NMR

erre ene a

0 1
  C      306.027     446.595    1536.082
  O      306.993     447.356    1536.794
  H      306.486     446.241    1535.162
  H      305.156     447.208    1535.835
  H      305.720     445.739    1536.684
  P      306.507     448.019    1538.178
  C      307.788     446.465    1539.802
  O      307.724     447.749    1539.189
  C      309.199     445.856    1539.656
  O      309.326     445.266    1538.338
  C      310.304     446.906    1539.819
  O      311.409     446.305    1540.537
  C      310.751     447.193    1538.386
  O      312.091     447.663    1538.298
  C      310.490     445.835    1537.712
  N      312.521     447.618    1533.373
  C      313.039     447.480    1534.630
  N      312.428     446.970    1535.722
  C      311.175     446.554    1535.418
  C      310.526     446.640    1534.198
  C      311.269     447.207    1533.145
  N      310.756     447.371    1531.878
  N      309.239     446.128    1534.305
  C      309.124     445.743    1535.559
  N      310.271     445.995    1536.287
  O      305.169     447.574    1538.677
  O      306.652     449.575    1537.868
  H      312.191     448.368    1538.981
  H      307.489     449.772    1537.403
  H      314.062     447.823    1534.765
  H      308.226     445.294    1535.997
  H      311.328     445.144    1537.816
  H      310.072     447.962    1537.959
  H      309.976     447.814    1540.341
  H      309.297     445.048    1540.391
  H      307.052     445.788    1539.323
  H      311.356     447.768    1531.174
  H      309.817     447.051    1531.682
  H      307.522     446.577    1540.862
  P      312.619     447.268    1541.012
  C      312.480     446.587    1543.510
  O      313.283     446.619    1542.325
  O      312.287     448.732    1541.103
  O      313.733     446.993    1539.893
  H      314.206     447.843    1539.704
  H      313.035     446.134    1544.305
  H      311.593     446.018    1543.325
  H      312.212     447.585    1543.786

 6  7  8  9  10  11  12  13  14  15  25  28  32  33  34  35 0
 6-311+G(2d,p)
 ****
 36  39  40 0
 6-311+G(2d,p)
 ****
 1  2  3  4  5  16  17  18  19  20  21  22  23  24 0
 3-21G
 ****
 26  27  29  30  31  37  38  41  42  43  44  45  46  47 0
 3-21G
 ****
 48 0
 3-21G
 ****


