%nproc=1
%NoSave
%Mem=1900MB
#P OB98/GEN NMR

erre ene a

0 1
  C     -379.236     468.813    -263.013
  O     -379.521     468.518    -264.365
  H     -380.156     469.164    -262.528
  H     -378.479     469.599    -262.943
  H     -378.886     467.915    -262.497
  P     -378.270     468.087    -265.279
  C     -376.464     469.491    -266.525
  O     -377.570     469.484    -265.643
  C     -375.275     470.194    -265.865
  O     -375.508     471.616    -265.782
  C     -375.006     469.743    -264.431
  O     -374.318     468.505    -264.358
  C     -374.145     470.893    -263.943
  O     -372.817     470.765    -264.477
  C     -374.881     472.099    -264.567
  N     -375.880     472.693    -263.669
  C     -375.732     474.045    -263.356
  O     -374.790     474.692    -263.816
  N     -376.633     474.635    -262.498
  C     -377.607     473.935    -262.001
  N     -378.457     474.565    -261.151
  C     -377.814     472.509    -262.318
  C     -376.935     471.961    -263.145
  O     -378.947     467.667    -266.670
  O     -377.373     467.051    -264.696
  H     -372.897     470.843    -265.450
  H     -378.248     467.500    -267.349
  H     -378.642     471.961    -261.878
  H     -377.015     470.910    -263.421
  H     -374.172     472.887    -264.848
  H     -374.054     470.929    -262.854
  H     -375.925     469.717    -263.837
  H     -374.394     470.044    -266.503
  H     -378.261     475.526    -260.901
  H     -376.748     470.021    -267.438
  H     -379.129     474.065    -260.582
  H     -376.180     468.467    -266.782
  P     -374.599     467.572    -263.085
  C     -372.751     466.379    -261.693
  O     -373.276     467.613    -262.173
  O     -374.555     466.091    -263.700
  O     -375.885     467.840    -262.371
  H     -375.240     465.525    -263.297
  H     -371.877     466.568    -261.106
  H     -372.495     465.753    -262.523
  H     -373.487     465.889    -261.090

 6  7  8  9  10  11  12  13  14  15  16  26  30  31  32  33  35 0
 6-311+G(2d,p)
 ****
 37  38 0
 6-311+G(2d,p)
 ****
 1  2  3  4  5  17  18  19  20  21  22  23  24  25 0
 3-21G
 ****
 27  28  29  34  36  39  40  41  42  43  44  45  46 0
 3-21G
 ****


