%nproc=1
%NoSave
%Mem=1900MB
#P OB98/GEN NMR

erre ene a

0 1
  C      149.881    -253.627    -143.904
  O      150.541    -254.347    -144.952
  P      151.315    -253.490    -146.063
  C      153.319    -253.861    -147.688
  O      152.373    -254.444    -146.799
  C      154.577    -254.730    -147.763
  O      155.343    -254.637    -146.545
  C      154.278    -256.209    -147.937
  O      153.935    -256.494    -149.276
  C      155.585    -256.852    -147.479
  O      156.502    -257.023    -148.574
  C      156.134    -255.838    -146.450
  N      156.147    -256.362    -145.093
  C      157.071    -257.376    -144.841
  O      157.808    -257.792    -145.740
  N      157.132    -257.910    -143.575
  C      156.309    -257.486    -142.658
  N      156.413    -258.057    -141.427
  C      155.301    -256.435    -142.896
  C      155.273    -255.925    -144.123
  O      152.239    -252.515    -145.195
  O      150.408    -252.729    -146.978
  H      157.243    -257.541    -148.217
  H      152.349    -251.659    -145.654
  H      154.631    -256.124    -142.107
  H      154.558    -255.151    -144.391
  H      157.162    -255.555    -146.712
  H      155.411    -257.851    -147.058
  H      153.461    -256.510    -147.260
  H      155.202    -254.372    -148.595
  H      157.114    -258.773    -141.300
  H      153.579    -252.853    -147.359
  H      155.822    -257.809    -140.644
  H      152.853    -253.759    -148.679
  P      152.523    -257.181    -149.559
  C      151.486    -258.381    -151.584
  O      152.679    -257.901    -150.986
  O      151.598    -255.920    -149.924
  O      151.926    -258.006    -148.464
  H      150.668    -256.200    -150.028
  H      151.703    -258.650    -152.629
  H      150.721    -257.606    -151.574
  H      151.132    -259.267    -151.054
  H      149.409    -254.319    -143.238
  H      149.142    -252.979    -144.327
  H      150.599    -253.046    -143.364

 3  4  5  6  7  8  9  10  11  12  13  21  23  27  28  29  30  32 0
 6-311+G(2d,p)
 ****
 34  35 0
 6-311+G(2d,p)
 ****
 1  2  14  15  16  17  18  19  20  22  24  25  26 0
 3-21G
 ****
 31  33  36  37  38  39  40  41  42  43  44  45  46 0
 3-21G
 ****


