%nproc=1
%NoSave
%Mem=1900MB
#P OB98/GEN NMR

erre ene a

0 1
  C      196.247    -426.494    -215.473
  O      197.315    -425.717    -214.951
  H      195.305    -426.089    -215.092
  H      196.337    -427.527    -215.138
  H      196.236    -426.452    -216.565
  P      198.806    -426.040    -215.432
  C      198.790    -424.601    -217.565
  O      198.815    -425.919    -217.037
  C      199.689    -424.502    -218.794
  O      199.111    -425.293    -219.866
  C      199.867    -423.070    -219.315
  O      201.213    -422.911    -219.769
  C      198.914    -422.999    -220.494
  O      199.322    -422.032    -221.461
  C      198.959    -424.440    -221.012
  N      196.937    -424.742    -225.638
  C      198.230    -424.436    -225.241
  N      199.107    -424.142    -226.228
  N      198.617    -424.420    -223.993
  C      197.638    -424.744    -223.126
  C      196.329    -425.066    -223.386
  C      195.905    -425.064    -224.761
  O      194.772    -425.319    -225.166
  N      195.635    -425.309    -222.217
  C      196.523    -425.137    -221.263
  N      197.754    -424.784    -221.753
  O      199.391    -427.311    -214.908
  O      199.647    -424.761    -214.961
  H      200.259    -422.234    -221.692
  H      200.129    -424.948    -214.139
  H      196.689    -424.733    -226.606
  H      196.339    -425.245    -220.205
  H      199.805    -424.605    -221.688
  H      197.907    -422.737    -220.146
  H      198.880    -424.157    -227.206
  H      199.643    -422.310    -218.559
  H      200.069    -423.937    -225.965
  H      200.659    -424.951    -218.558
  H      199.142    -423.910    -216.787
  H      197.758    -424.337    -217.831
  P      202.159    -421.848    -219.038
  C      203.474    -423.547    -217.618
  O      202.570    -422.446    -217.606
  O      201.660    -420.444    -219.023
  O      203.528    -421.959    -219.869
  H      203.983    -421.092    -219.852
  H      203.672    -423.857    -216.613
  H      204.389    -423.252    -218.087
  H      203.040    -424.359    -218.162

 6  7  8  9  10  11  12  13  14  15  26  29  33  34 0
 6-311+G(2d,p)
 ****
 36  38  39  40  41 0
 6-311+G(2d,p)
 ****
 1  2  3  4  5  16  17  18  19  20  21  22  23  24  25 0
 3-21G
 ****
 27  28  30  31  32  35  37  42  43  44  45  46  47 0
 3-21G
 ****
 48  49 0
 3-21G
 ****


