%nproc=1
%NoSave
%Mem=1900MB
#P OB98/GEN NMR

erre ene a

0 1
  C     -892.800     830.203    -201.987
  O     -892.620     829.830    -203.345
  P     -892.670     828.269    -203.722
  C     -893.490     828.942    -206.070
  O     -892.560     828.194    -205.319
  C     -893.660     828.338    -207.479
  O     -893.890     826.916    -207.384
  C     -894.850     828.872    -208.249
  O     -894.530     830.106    -208.896
  C     -895.010     827.779    -209.311
  O     -894.050     827.928    -210.333
  C     -894.750     826.509    -208.465
  N     -898.250     822.884    -209.362
  C     -897.210     823.346    -210.102
  N     -896.340     824.308    -209.808
  C     -896.610     824.883    -208.610
  C     -897.680     824.549    -207.758
  C     -898.500     823.491    -208.169
  N     -899.560     823.035    -207.373
  N     -897.650     825.347    -206.636
  C     -896.600     826.136    -206.793
  N     -895.930     825.878    -207.973
  O     -894.190     827.890    -203.431
  O     -891.730     827.404    -202.946
  H     -893.170     828.000    -209.903
  H     -894.280     826.930    -203.253
  H     -897.070     822.851    -211.051
  H     -896.290     826.897    -206.073
  H     -894.180     825.759    -209.051
  H     -896.010     827.791    -209.777
  H     -895.740     828.958    -207.630
  H     -892.720     828.494    -208.021
  H     -893.140     829.983    -206.185
  H     -900.000     822.168    -207.661
  H     -899.640     823.373    -206.406
  H     -894.460     828.958    -205.543
  P     -895.740     831.197    -208.985
  C     -893.750     832.711    -209.673
  O     -895.120     832.432    -209.783
  O     -895.800     831.731    -207.456
  O     -897.030     830.645    -209.460
  H     -896.710     832.077    -207.251
  H     -893.440     833.368    -210.504
  H     -893.130     831.790    -209.708
  H     -893.540     833.226    -208.728
  H     -892.740     831.268    -201.899
  H     -892.036     829.752    -201.389
  H     -893.759     829.870    -201.650

 3  4  5  6  7  8  9  10  11  12  22  25  29  30  31  32 0
 6-311+G(2d,p)
 ****
 33  36  37 0
 6-311+G(2d,p)
 ****
 1  2  13  14  15  16  17  18  19  20  21  23  24  26 0
 3-21G
 ****
 27  28  34  35  38  39  40  41  42  43  44  45  46  47  48 0
 3-21G
 ****


