%nproc=1
%NoSave
%Mem=1900MB
#P OB98/GEN NMR

erre ene a

0 1
  C      -48.931    -733.351      75.543
  O      -47.752    -732.628      75.290
  H      -49.660    -733.129      74.758
  H      -49.358    -733.055      76.505
  H      -48.736    -734.426      75.540
  P      -46.483    -732.923      76.231
  C      -45.175    -734.002      74.258
  O      -45.702    -734.171      75.573
  C      -44.491    -735.292      73.804
  O      -45.437    -736.391      73.874
  C      -43.959    -735.225      72.361
  O      -42.707    -735.918      72.303
  C      -45.003    -735.988      71.558
  O      -44.479    -736.531      70.350
  C      -45.476    -737.026      72.589
  N      -46.819    -737.509      72.262
  C      -47.095    -738.859      72.542
  O      -46.222    -739.574      73.022
  N      -48.324    -739.365      72.224
  C      -49.183    -738.616      71.588
  N      -50.374    -739.190      71.255
  C      -48.909    -737.217      71.204
  C      -47.725    -736.724      71.576
  O      -47.133    -733.561      77.546
  O      -45.623    -731.743      76.537
  H      -43.689    -737.082      70.577
  H      -46.617    -733.342      78.341
  H      -49.643    -736.643      70.650
  H      -47.438    -735.710      71.345
  H      -44.795    -737.877      72.614
  H      -45.823    -735.306      71.290
  H      -43.822    -734.198      72.000
  H      -43.676    -735.523      74.504
  H      -50.524    -740.163      71.516
  H      -44.433    -733.191      74.267
  H      -51.097    -738.720      70.726
  H      -45.988    -733.732      73.569
  P      -41.418    -735.154      72.884
  C      -41.197    -736.878      74.817
  O      -41.285    -735.514      74.438
  O      -41.883    -733.619      72.878
  O      -40.176    -735.364      72.067
  H      -41.416    -733.128      72.185
  H      -41.114    -736.948      75.881
  H      -40.335    -737.320      74.362
  H      -42.076    -737.396      74.493

 6  7  8  9  10  11  12  13  14  15  16  26  30  31  32  33  35 0
 6-311+G(2d,p)
 ****
 37  38 0
 6-311+G(2d,p)
 ****
 1  2  3  4  5  17  18  19  20  21  22  23  24  25 0
 3-21G
 ****
 27  28  29  34  36  39  40  41  42  43  44  45  46 0
 3-21G
 ****


