%nproc=1
%NoSave
%Mem=1900MB
#P OB98/GEN NMR

erre ene a

0 1
  C     -120.642      54.151      20.624
  O     -121.472      54.724      21.642
  P     -122.172      53.734      22.689
  C     -120.118      53.079      24.146
  O     -121.351      53.779      24.066
  C     -119.974      52.402      25.512
  O     -118.908      51.431      25.518
  C     -119.647      53.367      26.642
  O     -120.813      54.015      27.128
  C     -119.096      52.416      27.692
  O     -120.182      51.761      28.376
  C     -118.321      51.405      26.840
  N     -113.737      50.866      29.061
  C     -114.976      50.487      29.445
  N     -116.150      50.682      28.809
  C     -115.958      51.331      27.650
  C     -114.758      51.781      27.128
  C     -113.604      51.526      27.887
  N     -112.345      51.913      27.489
  N     -114.956      52.417      25.920
  C     -116.254      52.337      25.709
  N     -116.904      51.698      26.731
  O     -121.825      52.285      22.103
  O     -123.646      53.933      22.818
  H     -120.865      51.568      27.707
  H     -122.564      51.673      22.276
  H     -115.032      49.955      30.391
  H     -116.765      52.722      24.837
  H     -118.412      50.381      27.222
  H     -118.504      52.929      28.455
  H     -118.872      54.081      26.336
  H     -120.915      51.882      25.733
  H     -119.284      53.766      23.979
  H     -111.562      51.670      28.072
  H     -112.238      52.385      26.602
  H     -120.075      52.342      23.338
  P     -120.751      55.610      27.293
  C     -121.061      56.509      24.875
  O     -121.663      56.203      26.117
  O     -119.256      55.959      26.841
  O     -121.051      56.100      28.668
  H     -118.940      56.752      27.316
  H     -121.844      56.603      24.120
  H     -120.369      55.722      24.567
  H     -120.526      57.460      24.950
  H     -120.247      54.930      20.005
  H     -121.223      53.480      20.026
  H     -119.836      53.615      21.081

 3  4  5  6  7  8  9  10  11  12  22  25  29  30  31  32 0
 6-311+G(2d,p)
 ****
 33  36  37 0
 6-311+G(2d,p)
 ****
 1  2  13  14  15  16  17  18  19  20  21  23  24  26 0
 3-21G
 ****
 27  28  34  35  38  39  40  41  42  43  44  45  46  47  48 0
 3-21G
 ****


