%nproc=1
%NoSave
%Mem=1900MB
#P OB98/GEN NMR

erre ene a

0 1
  C      -20.145    -261.084     145.330
  O      -21.023    -260.069     145.816
  P      -22.587    -260.397     145.943
  C      -24.644    -259.408     147.138
  O      -23.281    -259.215     146.779
  C      -25.169    -258.213     147.936
  O      -24.451    -258.044     149.174
  C      -25.026    -256.891     147.200
  O      -25.989    -256.778     146.168
  C      -25.178    -255.898     148.343
  O      -26.565    -255.670     148.646
  C      -24.497    -256.639     149.514
  N      -23.174    -256.124     149.829
  C      -23.128    -254.822     150.338
  O      -24.162    -254.167     150.462
  N      -21.908    -254.293     150.681
  C      -20.830    -254.999     150.520
  N      -19.652    -254.426     150.879
  C      -20.834    -256.370     149.974
  C      -22.028    -256.862     149.646
  O      -22.923    -261.779     146.396
  O      -23.126    -260.130     144.454
  H      -26.978    -256.555     148.698
  H      -23.891    -260.717     144.288
  H      -19.912    -256.919     149.865
  H      -22.124    -257.862     149.234
  H      -25.110    -256.562     150.421
  H      -24.738    -254.926     148.099
  H      -24.017    -256.813     146.776
  H      -26.228    -258.399     148.168
  H      -19.674    -253.479     151.239
  H      -24.740    -260.322     147.730
  H      -18.766    -254.911     150.838
  H      -25.232    -259.560     146.225
  P      -25.492    -256.997     144.660
  C      -26.741    -257.124     142.393
  O      -26.677    -256.550     143.684
  O      -25.476    -258.594     144.516
  O      -24.150    -256.417     144.351
  H      -24.748    -258.861     143.926
  H      -27.745    -256.968     141.990
  H      -26.538    -258.197     142.424
  H      -26.018    -256.635     141.736
  H      -19.144    -260.708     145.306
  H      -20.442    -261.370     144.343
  H      -20.191    -261.935     145.977

 3  4  5  6  7  8  9  10  11  12  13  23  27  28  29  30  32 0
 6-311+G(2d,p)
 ****
 34  35 0
 6-311+G(2d,p)
 ****
 1  2  14  15  16  17  18  19  20  21  22  24  25  26 0
 3-21G
 ****
 31  33  36  37  38  39  40  41  42  43  44  45  46 0
 3-21G
 ****


