%nproc=1
%NoSave
%Mem=1900MB
#P OB98/GEN NMR

erre ene a

0 1
  C      450.725    1066.291    -600.119
  O      450.543    1066.945    -601.356
  H      450.341    1065.276    -600.200
  H      450.173    1066.823    -599.335
  H      451.784    1066.241    -599.848
  P      451.332    1068.316    -601.626
  C      453.246    1067.606    -603.215
  O      452.878    1067.922    -601.882
  C      454.766    1067.730    -603.407
  O      455.181    1069.101    -603.095
  C      455.512    1066.817    -602.437
  O      456.774    1066.390    -602.950
  C      455.751    1067.717    -601.223
  O      456.823    1067.274    -600.400
  C      455.994    1069.055    -601.897
  N      457.004    1071.635    -597.630
  C      457.499    1070.405    -598.052
  N      458.350    1069.780    -597.206
  N      457.169    1069.834    -599.184
  C      456.256    1070.573    -599.877
  C      455.670    1071.769    -599.573
  C      456.073    1072.407    -598.335
  O      455.661    1073.474    -597.894
  N      454.763    1072.175    -600.517
  C      454.781    1071.200    -601.409
  N      455.685    1070.202    -601.081
  O      451.390    1069.017    -600.197
  O      450.727    1069.215    -602.664
  H      457.580    1067.086    -600.982
  H      451.477    1069.983    -600.298
  H      457.307    1072.034    -596.758
  H      454.173    1071.162    -602.318
  H      457.031    1069.156    -602.209
  H      454.845    1067.703    -600.613
  H      458.492    1070.086    -596.266
  H      454.921    1065.928    -602.173
  H      458.484    1068.774    -597.354
  H      455.033    1067.551    -604.460
  H      452.737    1068.303    -603.872
  H      452.924    1066.590    -603.477
  P      456.810    1065.076    -603.853
  C      457.265    1066.526    -606.005
  O      456.487    1065.532    -605.371
  O      455.484    1064.263    -603.405
  O      458.047    1064.269    -603.706
  H      455.731    1063.505    -602.862
  H      456.898    1066.687    -606.997
  H      458.285    1066.206    -606.049
  H      457.201    1067.438    -605.449

 6  7  8  9  10  11  12  13  14  15  26  29  33  34 0
 6-311+G(2d,p)
 ****
 36  38  39  40  41 0
 6-311+G(2d,p)
 ****
 1  2  3  4  5  16  17  18  19  20  21  22  23  24  25 0
 3-21G
 ****
 27  28  30  31  32  35  37  42  43  44  45  46  47 0
 3-21G
 ****
 48  49 0
 3-21G
 ****


