%nproc=1
%NoSave
%Mem=1900MB
#P OB98/GEN NMR

erre ene a

0 1
  C     -598.573    -853.044    -241.674
  O     -597.542    -852.185    -241.217
  H     -598.608    -852.994    -242.769
  H     -599.539    -852.728    -241.278
  H     -598.358    -854.073    -241.372
  P     -597.383    -852.028    -239.629
  C     -595.032    -853.119    -239.407
  O     -595.805    -851.926    -239.327
  C     -593.546    -852.747    -239.465
  O     -593.290    -851.961    -240.651
  C     -593.076    -851.891    -238.297
  O     -592.839    -852.649    -237.119
  C     -591.794    -851.307    -238.873
  O     -590.681    -852.200    -238.713
  C     -592.154    -851.118    -240.354
  N     -592.405    -849.719    -240.677
  C     -591.273    -848.946    -240.943
  O     -590.128    -849.390    -240.916
  N     -591.508    -847.618    -241.212
  C     -592.722    -846.997    -241.184
  O     -592.854    -845.795    -241.366
  C     -593.876    -847.859    -240.876
  C     -593.671    -849.157    -240.646
  O     -597.787    -853.473    -239.077
  O     -598.205    -850.945    -239.017
  H     -598.667    -853.431    -238.664
  H     -590.405    -852.122    -237.777
  H     -590.704    -847.037    -241.410
  H     -594.857    -847.400    -240.846
  H     -594.505    -849.815    -240.404
  H     -591.328    -851.467    -240.991
  H     -591.533    -850.371    -238.372
  H     -593.784    -851.086    -238.110
  H     -592.962    -853.675    -239.533
  H     -595.291    -853.667    -240.319
  H     -595.243    -853.741    -238.539
  P     -593.250    -852.000    -235.715
  C     -593.675    -854.277    -234.454
  O     -592.888    -853.086    -234.606
  O     -594.844    -852.036    -235.825
  O     -592.651    -850.637    -235.513
  H     -595.149    -852.754    -236.408
  H     -593.272    -854.872    -233.662
  H     -593.655    -854.836    -235.366
  H     -594.685    -854.010    -234.221

 6  7  8  9  10  11  12  13  14  15  16  27  31  32  33  34  35 0
 6-311+G(2d,p)
 ****
 36  37 0
 6-311+G(2d,p)
 ****
 1  2  3  4  5  17  18  19  20  21  22  23  24  25 0
 3-21G
 ****
 26  28  29  30  38  39  40  41  42  43  44  45 0
 3-21G
 ****


