%nproc=1
%NoSave
%Mem=1900MB
#P OB98/GEN NMR

erre ene a

0 1
  C     -418.520     -22.398    -108.867
  O     -418.048     -22.687    -107.565
  H     -419.607     -22.288    -108.855
  H     -418.073     -21.458    -109.204
  H     -418.233     -23.195    -109.559
  P     -418.612     -24.029    -106.886
  C     -419.924     -24.576    -104.724
  O     -419.527     -23.571    -105.646
  C     -420.915     -23.997    -103.715
  O     -420.196     -23.075    -102.855
  C     -422.094     -23.240    -104.353
  O     -423.341     -23.693    -103.808
  C     -421.878     -21.796    -103.930
  O     -423.095     -21.096    -103.707
  C     -421.055     -21.943    -102.656
  N     -420.915     -17.659     -99.890
  C     -421.584     -18.812     -99.710
  N     -421.506     -19.951    -100.427
  C     -420.593     -19.833    -101.413
  C     -419.815     -18.722    -101.705
  C     -420.017     -17.583    -100.907
  N     -419.374     -16.389    -101.123
  N     -418.997     -18.971    -102.793
  C     -419.312     -20.195    -103.175
  N     -420.278     -20.749    -102.380
  O     -417.314     -24.659    -106.187
  O     -419.240     -24.988    -107.840
  H     -422.864     -20.192    -103.421
  H     -417.138     -25.534    -106.580
  H     -422.287     -18.826     -98.877
  H     -418.904     -20.704    -104.039
  H     -421.688     -22.150    -101.784
  H     -421.312     -21.275    -104.711
  H     -422.114     -23.337    -105.440
  H     -421.283     -24.811    -103.077
  H     -419.045     -24.950    -104.186
  H     -419.663     -15.591    -100.578
  H     -418.787     -16.297    -101.945
  H     -420.381     -25.407    -105.273
  P     -424.483     -24.072    -104.876
  C     -426.693     -22.913    -105.609
  O     -425.351     -22.748    -105.162
  O     -425.469     -25.011    -104.034
  O     -423.967     -24.770    -106.089
  H     -425.571     -25.870    -104.484
  H     -427.141     -21.952    -105.756
  H     -427.249     -23.457    -104.875
  H     -426.697     -23.454    -106.532

 6  7  8  9  10  11  12  13  14  15  25  28  32  33  34  35 0
 6-311+G(2d,p)
 ****
 36  39  40 0
 6-311+G(2d,p)
 ****
 1  2  3  4  5  16  17  18  19  20  21  22  23  24 0
 3-21G
 ****
 26  27  29  30  31  37  38  41  42  43  44  45  46  47  48 0
 3-21G
 ****


