%nproc=1
%NoSave
%Mem=1900MB
#P OB98/GEN NMR

erre ene a

0 1
  C     -236.133     338.580    -148.183
  O     -234.755     338.860    -148.011
  H     -236.236     337.603    -148.674
  H     -236.590     339.340    -148.823
  H     -236.650     338.542    -147.219
  P     -234.324     340.091    -147.084
  C     -234.794     338.684    -144.972
  O     -233.844     339.466    -145.683
  C     -234.096     337.556    -144.207
  O     -233.653     336.541    -145.169
  C     -232.846     338.004    -143.415
  O     -232.754     337.167    -142.247
  C     -231.741     337.684    -144.405
  O     -230.473     337.712    -143.801
  C     -232.246     336.337    -144.933
  N     -231.564     335.893    -146.142
  C     -230.321     335.287    -145.995
  O     -229.781     335.089    -144.900
  N     -229.691     334.915    -147.155
  C     -230.177     335.094    -148.420
  O     -229.578     334.719    -149.427
  C     -231.483     335.767    -148.514
  C     -232.109     336.127    -147.391
  O     -235.319     341.199    -146.972
  O     -232.950     340.596    -147.740
  H     -233.126     341.359    -148.324
  H     -230.220     338.639    -143.584
  H     -228.791     334.474    -147.061
  H     -231.884     335.941    -149.509
  H     -233.069     336.630    -147.425
  H     -232.157     335.560    -144.163
  H     -231.728     338.432    -145.204
  H     -232.891     339.057    -143.110
  H     -234.824     337.063    -143.549
  H     -235.502     338.261    -145.694
  H     -235.338     339.328    -144.268
  P     -232.092     337.651    -140.870
  C     -233.531     339.739    -140.410
  O     -233.190     338.427    -139.990
  O     -230.820     338.426    -141.049
  O     -231.812     336.309    -140.033
  H     -230.981     336.413    -139.523
  H     -234.266     340.146    -139.748
  H     -233.926     339.704    -141.404
  H     -232.657     340.357    -140.395

 6  7  8  9  10  11  12  13  14  15  16  27  31  32  33  34  35 0
 6-311+G(2d,p)
 ****
 36  37 0
 6-311+G(2d,p)
 ****
 1  2  3  4  5  17  18  19  20  21  22  23  24  25 0
 3-21G
 ****
 26  28  29  30  38  39  40  41  42  43  44  45 0
 3-21G
 ****


