%nproc=1
%NoSave
%Mem=1900MB
#P OB98/GEN NMR

erre ene a

0 1
  C     -897.800    -299.229    -896.490
  O     -897.160    -299.574    -895.270
  P     -897.930    -300.631    -894.330
  C     -896.150    -302.534    -894.350
  O     -897.450    -302.113    -894.750
  C     -895.330    -302.937    -895.570
  O     -895.160    -301.821    -896.490
  C     -893.920    -303.379    -895.230
  O     -893.920    -304.699    -894.690
  C     -893.250    -303.275    -896.610
  O     -893.580    -304.402    -897.430
  C     -893.910    -302.003    -897.170
  N     -889.760    -299.538    -898.860
  C     -890.310    -300.713    -899.200
  N     -891.410    -301.294    -898.710
  C     -891.980    -300.531    -897.760
  C     -891.530    -299.304    -897.300
  C     -890.360    -298.786    -897.890
  N     -889.800    -297.594    -897.520
  N     -892.370    -298.806    -896.330
  C     -893.300    -299.755    -896.170
  N     -893.100    -300.807    -897.040
  O     -899.440    -300.561    -894.850
  O     -897.830    -300.307    -892.870
  H     -894.540    -304.366    -897.610
  H     -900.000    -300.103    -894.190
  H     -889.780    -301.250    -900.000
  H     -894.120    -299.706    -895.470
  H     -894.140    -302.094    -898.250
  H     -892.160    -303.219    -896.540
  H     -893.450    -302.683    -894.540
  H     -895.860    -303.735    -896.110
  H     -896.230    -303.385    -893.670
  H     -888.920    -297.346    -897.940
  H     -890.200    -297.073    -896.750
  H     -895.670    -301.719    -893.800
  P     -893.610    -304.849    -893.130
  C     -895.830    -306.063    -892.750
  O     -895.070    -304.928    -892.440
  O     -893.120    -303.367    -892.750
  O     -892.670    -305.947    -892.780
  H     -893.720    -302.679    -893.120
  H     -896.790    -306.003    -892.220
  H     -895.310    -306.973    -892.450
  H     -896.050    -306.091    -893.830
  H     -897.196    -298.525    -897.023
  H     -898.755    -298.794    -896.281
  H     -897.931    -300.109    -897.085

 3  4  5  6  7  8  9  10  11  12  22  25  29  30  31  32 0
 6-311+G(2d,p)
 ****
 33  36  37 0
 6-311+G(2d,p)
 ****
 1  2  13  14  15  16  17  18  19  20  21  23  24  26 0
 3-21G
 ****
 27  28  34  35  38  39  40  41  42  43  44  45  46  47  48 0
 3-21G
 ****


