%nproc=1
%NoSave
%Mem=1900MB
#P OB98/GEN NMR

erre ene a

0 1
  C      200.987    -153.984      57.765
  O      201.677    -153.219      58.732
  H      199.969    -154.159      58.118
  H      201.483    -154.948      57.631
  H      200.945    -153.449      56.813
  P      203.175    -152.770      58.368
  C      202.317    -151.508      56.271
  O      203.194    -152.499      56.783
  C      203.060    -150.195      56.038
  O      203.976    -150.366      54.914
  C      202.150    -149.001      55.710
  O      202.733    -147.826      56.287
  C      202.267    -148.892      54.198
  O      201.921    -147.596      53.712
  C      203.736    -149.267      54.012
  N      204.342    -147.401      49.379
  C      204.088    -146.763      50.577
  N      203.981    -145.416      50.538
  N      203.957    -147.388      51.717
  C      204.122    -148.731      51.614
  C      204.369    -149.482      50.491
  C      204.487    -148.778      49.231
  O      204.691    -149.291      48.134
  N      204.442    -150.819      50.798
  C      204.242    -150.871      52.103
  N      204.042    -149.629      52.642
  O      203.996    -154.135      58.529
  O      203.738    -151.674      59.210
  H      202.539    -146.951      54.113
  H      204.376    -154.196      59.425
  H      204.423    -146.874      48.527
  H      204.227    -151.774      52.700
  H      204.413    -148.448      54.283
  H      201.610    -149.626      53.712
  H      204.119    -144.865      49.707
  H      201.117    -149.112      56.054
  H      203.839    -144.925      51.415
  H      203.678    -149.983      56.918
  H      201.511    -151.340      56.996
  H      201.881    -151.862      55.332
  P      201.756    -146.772      56.996
  C      202.597    -147.645      59.298
  O      201.485    -147.274      58.493
  O      200.351    -147.047      56.273
  O      202.179    -145.348      56.853
  H      199.812    -146.237      56.278
  H      202.252    -147.955      60.262
  H      203.254    -146.807      59.406
  H      203.122    -148.452      58.831

 6  7  8  9  10  11  12  13  14  15  26  29  33  34 0
 6-311+G(2d,p)
 ****
 36  38  39  40  41 0
 6-311+G(2d,p)
 ****
 1  2  3  4  5  16  17  18  19  20  21  22  23  24  25 0
 3-21G
 ****
 27  28  30  31  32  35  37  42  43  44  45  46  47 0
 3-21G
 ****
 48  49 0
 3-21G
 ****


