%nproc=1
%NoSave
%Mem=1900MB
#P OB98/GEN NMR

erre ene a

0 1
  C        3.035     285.831     385.518
  O        2.178     286.037     386.625
  H        2.436     285.478     384.676
  H        3.787     285.073     385.759
  H        3.528     286.770     385.246
  P        2.873     286.504     387.995
  C        3.124     284.040     388.736
  O        3.799     285.261     388.414
  C        3.497     283.577     390.148
  O        3.164     284.646     391.084
  C        2.745     282.319     390.596
  O        3.608     281.522     391.414
  C        1.626     282.873     391.460
  O        1.124     281.912     392.395
  C        2.304     284.082     392.102
  N        0.894     286.858     396.129
  C        1.994     286.106     395.888
  N        2.299     285.415     394.768
  C        1.366     285.604     393.817
  C        0.204     286.350     393.911
  C       -0.024     286.996     395.142
  N       -1.145     287.747     395.408
  N       -0.519     286.269     392.735
  C        0.199     285.497     391.939
  N        1.343     285.066     392.559
  O        1.946     286.995     389.058
  O        3.949     287.572     387.476
  H        0.476     281.340     391.943
  H        4.442     287.235     386.707
  H        2.716     286.042     396.700
  H       -0.052     285.214     390.918
  H        2.928     283.809     392.965
  H        0.786     283.188     390.832
  H        2.369     281.715     389.767
  H        4.582     283.441     390.196
  H        3.390     283.266     388.011
  H       -1.233     288.171     396.316
  H       -1.848     287.865     394.693
  H        2.040     284.225     388.667
  P        4.365     280.270     390.748
  C        2.743     278.321     391.225
  O        3.269     279.213     390.248
  O        5.478     279.683     391.549
  O        4.913     280.881     389.369
  H        5.829     280.552     389.213
  H        2.027     277.672     390.766
  H        2.269     278.883     392.002
  H        3.538     277.738     391.640

 6  7  8  9  10  11  12  13  14  15  25  28  32  33  34  35 0
 6-311+G(2d,p)
 ****
 36  39  40 0
 6-311+G(2d,p)
 ****
 1  2  3  4  5  16  17  18  19  20  21  22  23  24 0
 3-21G
 ****
 26  27  29  30  31  37  38  41  42  43  44  45  46  47 0
 3-21G
 ****
 48 0
 3-21G
 ****


