%nproc=1
%NoSave
%Mem=1900MB
#P OB98/GEN NMR

erre ene a

0 1
  C      115.605    -198.821     334.389
  O      116.350    -199.842     335.027
  H      115.690    -198.952     333.307
  H      116.005    -197.840     334.661
  H      114.553    -198.888     334.675
  P      116.341    -199.836     336.631
  C      114.592    -201.757     336.847
  O      114.900    -200.387     337.069
  C      113.084    -201.998     336.994
  O      112.385    -201.212     335.979
  C      112.663    -203.460     336.786
  O      111.474    -203.692     337.565
  C      112.313    -203.478     335.308
  O      111.592    -204.640     334.969
  C      111.587    -202.137     335.204
  N      108.261    -200.387     331.734
  C      108.113    -200.717     333.040
  N      109.047    -201.165     333.900
  C      110.251    -201.242     333.304
  C      110.559    -200.928     331.989
  C      109.492    -200.488     331.184
  N      109.641    -200.158     329.856
  N      111.904    -201.133     331.740
  C      112.397    -201.561     332.888
  N      111.437    -201.647     333.854
  O      116.278    -198.278     336.992
  O      117.499    -200.514     337.285
  H      112.151    -205.442     335.081
  H      117.177    -197.938     337.161
  H      107.107    -200.612     333.437
  H      113.433    -201.831     333.066
  H      110.590    -202.177     335.659
  H      113.217    -203.477     334.694
  H      113.432    -204.179     337.077
  H      112.752    -201.617     337.967
  H      115.135    -202.360     337.585
  H      114.908    -202.044     335.839
  H      108.823    -199.865     329.342
  H      110.549    -200.245     329.425
  P      111.616    -203.992     339.140
  C      110.656    -201.664     339.855
  O      111.729    -202.596     339.927
  O      113.118    -204.546     339.236
  O      110.646    -204.985     339.700
  H      113.194    -205.156     339.997
  H      110.898    -200.797     340.433
  H      109.766    -202.114     340.242
  H      110.498    -201.380     338.835

 6  7  8  9  10  11  12  13  14  15  25  28  32  33  34  35 0
 6-311+G(2d,p)
 ****
 36  37  40 0
 6-311+G(2d,p)
 ****
 1  2  3  4  5  16  17  18  19  20  21  22  23  24 0
 3-21G
 ****
 26  27  29  30  31  38  39 41  42  43  44  45  46  47  48 0
 3-21G
 ****


