%nproc=1
%NoSave
%Mem=1900MB
#P OB98/GEN NMR

erre ene a

0 1
  C     -361.062     152.271      71.818
  O     -361.655     153.288      72.596
  H     -361.655     151.359      71.924
  H     -360.047     152.076      72.178
  H     -361.029     152.546      70.761
  P     -361.210     154.806      72.348
  C     -359.075     154.131      73.631
  O     -359.620     154.871      72.551
  C     -357.775     154.768      74.138
  O     -356.779     154.742      73.085
  C     -358.004     156.239      74.497
  O     -357.119     156.687      75.522
  C     -357.670     156.959      73.199
  O     -357.333     158.328      73.392
  C     -356.520     156.098      72.677
  N     -354.201     158.326      68.722
  C     -354.167     158.667      70.059
  N     -353.439     159.758      70.381
  N     -354.807     158.009      70.991
  C     -355.555     156.985      70.511
  C     -355.688     156.566      69.208
  C     -354.945     157.280      68.189
  O     -354.954     157.033      66.987
  N     -356.551     155.503      69.107
  C     -356.946     155.283      70.346
  N     -356.358     156.148      71.239
  O     -361.757     155.578      73.643
  O     -361.714     155.432      71.083
  H     -356.721     158.377      74.151
  H     -361.897     156.522      73.443
  H     -353.681     158.859      68.045
  H     -357.646     154.515      70.652
  H     -355.569     156.411      73.126
  H     -358.553     156.929      72.554
  H     -353.081     160.393      69.686
  H     -359.035     156.429      74.809
  H     -353.639     160.190      71.290
  H     -357.370     154.186      74.975
  H     -358.875     153.119      73.261
  H     -359.805     154.047      74.439
  P     -357.593     156.504      77.041
  C     -357.574     159.113      77.320
  O     -358.253     157.887      77.521
  O     -356.219     156.419      77.856
  O     -358.455     155.303      77.265
  H     -356.047     155.498      78.130
  H     -358.168     159.917      77.703
  H     -357.407     159.261      76.274
  H     -356.634     159.088      77.831

 6  7  8  9  10  11  12  13  14  15  26  29  33  34 0
 6-311+G(2d,p)
 ****
 36  38  39  40  41 0
 6-311+G(2d,p)
 ****
 1  2  3  4  5  16  17  18  19  20  21  22  23  24  25 0
 3-21G
 ****
 27  28  30  31  32  35  37  42  43  44  45  46  47 0
 3-21G
 ****
 48  49 0
 3-21G
 ****


