%nproc=1
%NoSave
%Mem=1900MB
#P OB98/GEN NMR

erre ene a

0 1
  C     1423.174    -347.839     764.432
  O     1421.761    -347.896     764.748
  P     1421.362    -348.885     765.945
  C     1420.281    -350.523     764.237
  O     1420.122    -349.786     765.430
  C     1419.201    -351.624     764.109
  O     1419.510    -352.735     764.966
  C     1417.816    -351.156     764.517
  O     1417.176    -350.387     763.490
  C     1417.114    -352.489     764.749
  O     1416.644    -353.014     763.473
  C     1418.230    -353.371     765.306
  N     1415.579    -355.215     769.211
  C     1415.313    -355.271     767.864
  N     1414.198    -355.925     767.479
  N     1416.083    -354.714     766.948
  C     1417.178    -354.114     767.439
  C     1417.568    -353.997     768.790
  C     1416.685    -354.588     769.792
  O     1416.863    -354.544     770.989
  N     1418.761    -353.351     768.921
  C     1419.106    -353.070     767.673
  N     1418.188    -353.532     766.739
  O     1420.647    -347.910     767.015
  O     1422.506    -349.637     766.541
  H     1416.233    -353.884     763.674
  H     1420.747    -348.256     767.904
  H     1414.962    -355.641     769.870
  H     1420.030    -352.577     767.374
  H     1418.234    -354.375     764.846
  H     1416.235    -352.397     765.409
  H     1413.620    -356.427     768.113
  H     1417.861    -350.582     765.489
  H     1413.989    -356.006     766.486
  H     1419.182    -351.964     763.079
  H     1421.292    -351.022     764.223
  H     1420.249    -349.837     763.378
  P     1417.315    -348.807     763.572
  C     1414.810    -348.625     764.169
  O     1415.834    -348.227     763.308
  O     1418.091    -348.457     762.233
  O     1418.008    -348.287     764.770
  H     1418.627    -347.632     762.333
  H     1415.120    -348.602     765.203
  H     1414.459    -349.639     763.907
  H     1413.948    -347.923     764.052
  H     1423.332    -347.155     763.625
  H     1423.515    -348.812     764.146
  H     1423.719    -347.508     765.292

 3  4  5  6  7  8  9  10  11  12  23  26  30  31  33  0
 6-311+G(2d,p)
 ****
 35  36  37  38 0
 6-311+G(2d,p)
 ****
 1  2  13  14  15  16  17  18  19  20  21  22  24  25  27  28  29 0
 3-21G
 ****
 32  34  39  40  41  42  43  44  45  46  47  48  49 0
 3-21G
 ****


