%nproc=1
%NoSave
%Mem=1900MB
#P OB98/GEN NMR

erre ene a

0 1
  C       -9.389       0.270       3.136
  O      -10.754       0.253       2.769
  H       -8.997       1.280       2.980
  H       -8.822      -0.428       2.515
  H       -9.278       0.008       4.192
  P      -11.512      -1.155       2.903
  C      -12.047      -1.983       0.504
  O      -11.130      -1.995       1.589
  C      -11.962      -0.659      -0.250
  O      -10.587      -0.243      -0.399
  C      -12.561      -0.692      -1.651
  O      -13.968      -0.518      -1.612
  C      -11.842       0.475      -2.311
  O      -12.452       1.736      -1.963
  C      -10.434       0.365      -1.708
  N       -7.239       0.543      -5.616
  C       -7.979       1.546      -5.022
  N       -7.893       2.770      -5.591
  N       -8.739       1.367      -3.976
  C       -8.752       0.086      -3.539
  C       -8.051      -0.993      -4.030
  C       -7.188      -0.772      -5.171
  O       -6.458      -1.603      -5.701
  N       -8.314      -2.125      -3.304
  C       -9.197      -1.743      -2.404
  N       -9.508      -0.413      -2.515
  O      -13.050      -0.777       2.663
  O      -11.319      -1.866       4.201
  H      -13.411       1.611      -1.862
  H      -13.613      -1.390       3.172
  H       -6.657       0.748      -6.409
  H       -9.639      -2.387      -1.654
  H       -9.973       1.349      -1.559
  H      -11.871       0.405      -3.399
  H       -7.608       2.890      -6.554
  H      -12.291      -1.623      -2.166
  H       -8.449       3.507      -5.175
  H      -12.464       0.102       0.363
  H      -13.062      -2.109       0.896
  H      -11.819      -2.815      -0.171
  P      -14.842      -1.247      -2.746
  C      -15.938       0.322      -4.507
  O      -14.755      -0.317      -4.051
  O      -16.347      -1.034      -2.245
  O      -14.516      -2.686      -2.953
  H      -16.941      -1.657      -2.702
  H      -15.717       0.901      -5.379
  H      -16.316       0.964      -3.739
  H      -16.673      -0.418      -4.747

 6  7  8  9  10  11  12  13  14  15  26  29  33  34 0
 6-311+G(2d,p)
 ****
 36  38  39  40  41 0
 6-311+G(2d,p)
 ****
 1  2  3  4  5  16  17  18  19  20  21  22  23  24  25 0
 3-21G
 ****
 27  28  30  31  32  35  37  42  43  44  45  46  47 0
 3-21G
 ****
 48  49 0
 3-21G
 ****


