%nproc=1
%NoSave
%Mem=1900MB
#P OB98/GEN NMR

erre ene a

0 1
  C      832.813     396.911    -412.778
  O      834.105     397.481    -412.881
  H      832.914     395.873    -412.434
  H      832.332     396.907    -413.761
  H      832.197     397.458    -412.067
  P      834.235     399.062    -413.101
  C      834.715     398.611    -415.599
  O      835.145     399.265    -414.414
  C      835.919     398.081    -416.391
  O      836.748     399.221    -416.783
  C      836.816     397.106    -415.592
  O      837.363     396.170    -416.539
  C      837.885     398.054    -415.082
  O      839.010     397.367    -414.585
  C      838.090     398.929    -416.323
  N      838.845     400.153    -416.057
  C      840.218     400.023    -415.886
  O      840.825     398.963    -415.965
  N      840.893     401.195    -415.604
  C      840.317     402.428    -415.481
  O      840.974     403.448    -415.246
  C      838.864     402.493    -415.644
  C      838.203     401.364    -415.930
  O      834.662     399.853    -411.916
  O      832.774     399.494    -413.612
  H      832.264     399.847    -412.854
  H      838.755     396.822    -413.812
  H      841.889     401.125    -415.465
  H      838.382     403.456    -415.538
  H      837.121     401.368    -416.053
  H      838.587     398.360    -417.118
  H      837.492     398.654    -414.246
  H      836.273     396.567    -414.814
  H      835.555     397.617    -417.317
  H      834.159     399.334    -416.211
  H      834.049     397.779    -415.327
  P      836.472     395.097    -417.327
  C      838.293     393.287    -417.567
  O      837.430     394.181    -418.240
  O      835.339     395.708    -418.089
  O      835.915     394.092    -416.216
  H      835.019     393.815    -416.453
  H      838.871     392.742    -418.284
  H      837.713     392.604    -416.982
  H      838.948     393.839    -416.925

 6  7  8  9  10  11  12  13  14  15  16  27  31  32  33  34  35 0
 6-311+G(2d,p)
 ****
 36  37 0
 6-311+G(2d,p)
 ****
 1  2  3  4  5  17  18  19  20  21  22  23  24  25 0
 3-21G
 ****
 26  28  29  30  38  39  40  41  42  43  44  45 0
 3-21G
 ****


