%nproc=1
%NoSave
%Mem=1900MB
#P OB98/GEN NMR

erre ene a

0 1
  C     -241.862    -419.424     249.517
  O     -242.845    -419.838     250.441
  H     -242.071    -419.892     248.553
  H     -240.872    -419.742     249.856
  H     -241.873    -418.337     249.386
  P     -242.972    -419.059     251.833
  C     -245.509    -419.521     251.715
  O     -244.340    -419.541     252.519
  C     -246.349    -420.787     251.943
  O     -245.825    -421.853     251.106
  C     -246.256    -421.271     253.392
  O     -247.419    -421.985     253.799
  C     -245.078    -422.235     253.351
  O     -245.098    -423.192     254.408
  C     -245.242    -422.849     251.961
  N     -242.973    -426.153     248.812
  C     -244.274    -426.142     249.266
  N     -245.081    -427.135     248.819
  N     -244.739    -425.245     250.098
  C     -243.805    -424.353     250.515
  C     -242.480    -424.283     250.154
  C     -241.985    -425.262     249.203
  O     -240.831    -425.331     248.789
  N     -241.842    -423.246     250.789
  C     -242.778    -422.696     251.539
  N     -243.995    -423.318     251.390
  O     -243.318    -417.557     251.394
  O     -241.761    -419.105     252.716
  H     -244.304    -423.750     254.317
  H     -243.082    -416.934     252.101
  H     -242.672    -426.848     248.145
  H     -242.632    -421.847     252.191
  H     -245.927    -423.703     251.992
  H     -244.158    -421.654     253.453
  H     -244.708    -427.938     248.345
  H     -246.072    -420.461     254.096
  H     -245.919    -427.317     249.374
  H     -247.379    -420.614     251.627
  H     -245.182    -419.455     250.678
  H     -246.102    -418.626     251.924
  P     -248.300    -421.395     254.998
  C     -250.289    -423.132     254.777
  O     -249.284    -422.521     255.560
  O     -249.280    -420.356     254.282
  O     -247.500    -420.748     256.086
  H     -249.093    -419.448     254.577
  H     -250.815    -423.851     255.370
  H     -249.839    -423.622     253.939
  H     -250.973    -422.386     254.430

 6  7  8  9  10  11  12  13  14  15  26  29  33  34 0
 6-311+G(2d,p)
 ****
 36  38  39  40  41 0
 6-311+G(2d,p)
 ****
 1  2  3  4  5  16  17  18  19  20  21  22  23  24  25 0
 3-21G
 ****
 27  28  30  31  32  35  37  42  43  44  45  46  47 0
 3-21G
 ****
 48  49 0
 3-21G
 ****


