%nproc=1
%NoSave
%Mem=1900MB
#P OB98/GEN NMR

erre ene a

0 1
  C     -143.446     288.878    -406.565
  O     -143.879     288.918    -407.911
  H     -142.366     289.055    -406.536
  H     -143.651     287.893    -406.140
  H     -143.947     289.653    -405.975
  P     -145.462     288.886    -408.161
  C     -145.457     286.309    -408.491
  O     -145.960     287.413    -407.753
  C     -146.275     285.057    -408.197
  O     -145.976     284.555    -406.873
  C     -147.790     285.275    -408.230
  O     -148.301     285.227    -409.559
  C     -148.261     284.084    -407.414
  O     -148.213     282.887    -408.225
  C     -147.204     284.021    -406.306
  N     -149.806     283.977    -401.948
  C     -149.705     283.009    -402.939
  N     -150.398     281.869    -402.736
  N     -148.987     283.141    -404.021
  C     -148.349     284.340    -404.095
  C     -148.372     285.375    -403.185
  C     -149.160     285.209    -401.984
  O     -149.270     286.023    -401.073
  N     -147.591     286.423    -403.597
  C     -147.114     286.036    -404.763
  N     -147.550     284.779    -405.116
  O     -145.588     288.883    -409.760
  O     -146.230     290.015    -407.558
  H     -147.332     282.864    -408.640
  H     -146.373     289.405    -410.016
  H     -150.380     283.823    -401.141
  H     -146.454     286.618    -405.394
  H     -146.998     282.992    -405.987
  H     -149.291     284.190    -407.072
  H     -151.012     281.721    -401.947
  H     -148.071     286.204    -407.725
  H     -150.318     281.134    -403.426
  H     -145.985     284.279    -408.920
  H     -144.413     286.132    -408.207
  H     -145.499     286.545    -409.561
  P     -149.847     285.609    -409.775
  C     -150.794     283.258    -410.352
  O     -150.675     284.289    -409.378
  O     -149.985     285.666    -411.372
  O     -150.278     286.880    -409.125
  H     -150.741     286.228    -411.619
  H     -151.367     282.450    -409.948
  H     -149.820     282.906    -410.619
  H     -151.285     283.643    -411.221

 6  7  8  9  10  11  12  13  14  15  26  29  33  34 0
 6-311+G(2d,p)
 ****
 36  38  39  40  41 0
 6-311+G(2d,p)
 ****
 1  2  3  4  5  16  17  18  19  20  21  22  23  24  25 0
 3-21G
 ****
 27  28  30  31  32  35  37  42  43  44  45  46  47 0
 3-21G
 ****
 48  49 0
 3-21G
 ****


