%nproc=1
%NoSave
%Mem=1900MB
#P OB98/GEN NMR

erre ene a

0 1
  C       34.913     101.243     -19.531
  O       36.096     101.232     -20.340
  P       36.907      99.893     -20.697
  C       37.337     100.560     -23.150
  O       37.919     100.189     -21.907
  C       38.321     101.341     -24.029
  O       38.548     102.670     -23.469
  C       39.699     100.672     -24.190
  O       40.106     100.897     -25.544
  C       40.550     101.467     -23.212
  O       41.942     101.350     -23.444
  C       39.977     102.867     -23.444
  N       40.343     103.868     -22.448
  C       41.051     104.995     -22.887
  O       41.405     105.114     -24.058
  N       41.365     105.969     -21.970
  C       41.016     105.833     -20.729
  N       41.351     106.840     -19.877
  C       40.289     104.659     -20.222
  C       39.987     103.728     -21.125
  O       36.028      98.708     -20.937
  O       37.872      99.632     -19.446
  H       37.952      98.671     -19.298
  H       42.384     102.099     -23.003
  H       40.010     104.588     -19.181
  H       39.426     102.844     -20.836
  H       40.269     103.219     -24.440
  H       40.350     101.105     -22.199
  H       39.688      99.595     -24.000
  H       37.853     101.490     -25.010
  H       41.842     107.637     -20.265
  H       36.466     101.190     -22.951
  H       41.122     106.842     -18.895
  H       36.996      99.657     -23.669
  P       40.413      99.645     -26.499
  C       39.945     100.972     -28.691
  O       40.865     100.222     -27.924
  O       38.935      99.106     -26.818
  O       41.243      98.552     -25.910
  H       38.982      98.157     -27.037
  H       40.459     101.849     -29.093
  H       39.089     101.308     -28.102
  H       39.590     100.358     -29.522
  H       34.556     102.247     -19.435
  H       35.140     100.851     -18.562
  H       34.160     100.639     -19.992

 3  4  5  6  7  8  9  10  11  12  13  24  27  28  29  30  32 0
 6-311+G(2d,p)
 ****
 34  35 0
 6-311+G(2d,p)
 ****
 1  2  14  15  16  17  18  19  20  21  22  23  25  26 0
 3-21G
 ****
 31  33  36  37  38  39  40  41  42  43  44  45  46 0
 3-21G
 ****


