%nproc=1
%NoSave
%Mem=1900MB
#P OB98/GEN NMR

erre ene a

0 1
  C     -231.201     212.003    -281.233
  O     -232.469     211.742    -280.666
  H     -230.534     211.168    -280.998
  H     -230.778     212.921    -280.814
  H     -231.287     212.091    -282.319
  P     -233.593     212.870    -280.868
  C     -236.169     212.824    -280.845
  O     -234.973     212.126    -280.516
  C     -237.379     211.893    -280.732
  O     -237.170     210.759    -281.614
  C     -237.599     211.344    -279.318
  O     -238.999     211.279    -279.051
  C     -237.023     209.942    -279.384
  O     -237.604     209.070    -278.419
  C     -237.310     209.556    -280.834
  N     -236.358     204.545    -280.878
  C     -237.414     205.257    -280.442
  N     -237.595     206.597    -280.486
  C     -236.554     207.197    -281.091
  C     -235.405     206.602    -281.582
  C     -235.318     205.205    -281.452
  N     -234.235     204.471    -281.867
  N     -234.547     207.557    -282.094
  C     -235.173     208.706    -281.924
  N     -236.383     208.540    -281.307
  O     -233.564     213.583    -282.177
  O     -233.361     213.791    -279.581
  H     -238.537     208.913    -278.665
  H     -233.229     213.256    -278.776
  H     -238.222     204.683    -279.993
  H     -234.791     209.679    -282.217
  H     -238.326     209.163    -280.976
  H     -235.939     209.976    -279.202
  H     -237.104     211.952    -278.555
  H     -238.266     212.423    -281.097
  H     -236.107     213.219    -281.864
  H     -234.260     203.468    -281.751
  H     -233.457     204.944    -282.317
  H     -236.272     213.663    -280.149
  P     -239.728     212.577    -278.463
  C     -241.991     213.677    -279.054
  O     -241.302     212.464    -278.766
  O     -239.105     213.888    -278.798
  O     -239.674     212.313    -276.881
  H     -239.520     213.165    -276.419
  H     -243.024     213.466    -279.236
  H     -241.562     214.134    -279.921
  H     -241.904     214.343    -278.221

 6  7  8  9  10  11  12  13  14  15  25  28  32  33  34  35 0
 6-311+G(2d,p)
 ****
 36  39  40 0
 6-311+G(2d,p)
 ****
 1  2  3  4  5  16  17  18  19  20  21  22  23  24 0
 3-21G
 ****
 26  27  29  30  31  37  38  41  42  43  44  45  46  47 0
 3-21G
 ****
 48 0
 3-21G
 ****


