%nproc=1
%NoSave
%Mem=1900MB
#P OB98/GEN NMR

erre ene a

0 1
  C       -4.994      81.479      30.608
  O       -4.479      82.497      31.443
  H       -6.020      81.739      30.335
  H       -5.004      80.521      31.133
  H       -4.400      81.398      29.694
  P       -2.993      82.333      32.019
  C       -1.938      83.425      29.930
  O       -2.025      82.260      30.742
  C       -0.646      84.181      30.226
  O        0.496      83.326      30.021
  C       -0.423      85.412      29.348
  O       -1.158      86.518      29.842
  C        1.078      85.594      29.500
  O        1.366      86.191      30.779
  C        1.576      84.136      29.478
  N        5.134      83.944      25.863
  C        5.094      84.685      27.028
  N        6.137      85.516      27.246
  N        4.117      84.627      27.895
  C        3.110      83.808      27.512
  C        3.026      83.036      26.375
  C        4.146      83.059      25.458
  O        4.231      82.398      24.425
  N        1.810      82.407      26.284
  C        1.182      82.755      27.390
  N        1.925      83.614      28.167
  O       -2.788      81.219      33.000
  O       -2.654      83.762      32.653
  H        0.936      87.067      30.791
  H       -2.887      83.792      33.600
  H        5.909      84.036      25.229
  H        0.195      82.414      27.680
  H        2.452      83.991      30.120
  H        1.507      86.244      28.736
  H        6.840      85.715      26.549
  H       -0.651      85.202      28.297
  H        6.097      86.110      28.065
  H       -0.653      84.456      31.289
  H       -2.807      84.050      30.156
  H       -1.969      83.155      28.869
  P       -1.707      87.668      28.862
  C       -3.977      86.461      29.152
  O       -3.075      87.091      28.258
  O       -0.728      88.143      27.846
  O       -2.235      88.808      29.848
  H       -1.519      89.428      30.139
  H       -4.839      86.128      28.613
  H       -4.276      87.158      29.907
  H       -3.497      85.622      29.611

 6  7  8  9  10  11  12  13  14  15  26  29  33  34 0
 6-311+G(2d,p)
 ****
 36  38  39  40  41 0
 6-311+G(2d,p)
 ****
 1  2  3  4  5  16  17  18  19  20  21  22  23  24  25 0
 3-21G
 ****
 27  28  30  31  32  35  37  42  43  44  45  46  47 0
 3-21G
 ****
 48  49 0
 3-21G
 ****


