%nproc=1
%NoSave
%Mem=1900MB
#P OB98/GEN NMR

erre ene a

0 1
  C      173.222    -312.364    -201.517
  O      173.851    -311.672    -200.456
  H      172.444    -313.012    -201.103
  H      173.953    -312.987    -202.040
  H      172.757    -311.669    -202.221
  P      174.841    -310.460    -200.803
  C      176.793    -311.945    -201.610
  O      175.810    -310.978    -201.971
  C      177.500    -312.485    -202.852
  O      178.571    -313.384    -202.421
  C      176.587    -313.287    -203.803
  O      177.076    -313.086    -205.139
  C      176.855    -314.705    -203.334
  O      176.378    -315.659    -204.253
  C      178.368    -314.633    -203.120
  N      178.901    -315.758    -202.360
  C      179.840    -316.560    -202.993
  O      180.259    -316.375    -204.134
  N      180.293    -317.634    -202.265
  C      179.902    -317.960    -200.998
  O      180.353    -318.919    -200.383
  C      178.885    -317.084    -200.394
  C      178.438    -316.039    -201.086
  O      175.532    -309.834    -199.636
  O      173.902    -309.406    -201.561
  H      173.606    -308.721    -200.933
  H      177.030    -315.798    -204.975
  H      180.979    -318.232    -202.706
  H      178.538    -317.335    -199.398
  H      177.685    -315.374    -200.676
  H      178.892    -314.556    -204.075
  H      176.337    -314.895    -202.392
  H      175.537    -312.981    -203.747
  H      177.983    -311.648    -203.378
  H      176.283    -312.763    -201.090
  H      177.520    -311.484    -200.936
  P      176.717    -311.788    -206.018
  C      174.531    -312.600    -207.125
  O      175.123    -311.691    -206.204
  O      177.472    -311.717    -207.310
  O      177.072    -310.532    -205.092
  H      177.421    -309.811    -205.649
  H      173.474    -312.436    -207.159
  H      174.726    -313.604    -206.811
  H      174.947    -312.443    -208.098

 6  7  8  9  10  11  12  13  14  15  16  27  31  32  33  34  35 0
 6-311+G(2d,p)
 ****
 36  37 0
 6-311+G(2d,p)
 ****
 1  2  3  4  5  17  18  19  20  21  22  23  24  25 0
 3-21G
 ****
 26  28  29  30  38  39  40  41  42  43  44  45 0
 3-21G
 ****


