%nproc=1
%NoSave
%Mem=1900MB
#P OB98/GEN NMR

erre ene a

0 1
  C      -73.742     -27.394     123.222
  O      -72.443     -27.965     123.433
  P      -72.330     -29.397     124.162
  C      -71.859     -28.411     126.546
  O      -71.415     -29.227     125.476
  C      -71.347     -28.953     127.884
  O      -71.783     -30.322     128.076
  C      -69.827     -29.010     127.993
  O      -69.268     -27.724     128.247
  C      -69.642     -29.981     129.153
  O      -69.788     -29.313     130.419
  C      -70.811     -30.967     128.924
  N      -70.364     -32.234     128.353
  C      -69.721     -33.115     129.229
  O      -69.465     -32.838     130.400
  N      -69.342     -34.321     128.684
  C      -69.479     -34.695     127.379
  O      -69.101     -35.780     126.956
  C      -70.096     -33.688     126.486
  C      -70.498     -32.536     127.015
  O      -71.341     -30.190     123.173
  O      -73.608     -30.137     124.345
  H      -69.589     -29.965     131.110
  H      -71.526     -31.149     123.235
  H      -68.900     -34.976     129.309
  H      -70.201     -33.943     125.446
  H      -70.953     -31.781     126.370
  H      -71.320     -31.172     129.876
  H      -68.654     -30.455     129.151
  H      -69.400     -29.447     127.081
  H      -71.769     -28.340     128.690
  H      -72.957     -28.403     126.562
  H      -71.504     -27.387     126.383
  P      -68.659     -26.949     126.980
  C      -66.175     -27.135     127.792
  O      -67.292     -26.304     127.500
  O      -69.678     -25.714     126.860
  O      -68.569     -27.793     125.754
  H      -70.009     -25.427     127.734
  H      -66.140     -27.999     127.130
  H      -66.239     -27.458     128.835
  H      -65.263     -26.545     127.660
  H      -73.641     -26.449     122.730
  H      -74.228     -27.255     124.165
  H      -74.326     -28.052     122.614

 3  4  5  6  7  8  9  10  11  12  13  23  28  29  30  31  32 0
 6-311+G(2d,p)
 ****
 33  34 0
 6-311+G(2d,p)
 ****
 1  2  14  15  16  17  18  19  20  21  22  24  25  26 0
 3-21G
 ****
 27  35  36  37  38  39  40  41  42  43  44  45 0
 3-21G
 ****


