%nproc=1
%NoSave
%Mem=1900MB
#P OB98/GEN NMR

erre ene a

0 1
  C      -77.795     361.465     175.608
  O      -78.564     362.119     174.591
  P      -77.949     363.456     173.946
  C      -79.330     363.323     171.717
  O      -79.077     364.004     172.941
  C      -80.754     363.602     171.248
  O      -81.716     363.066     172.191
  C      -81.092     365.087     171.121
  O      -80.487     365.661     169.974
  C      -82.615     365.032     171.090
  O      -83.078     364.692     169.777
  C      -82.910     363.874     172.076
  N      -83.376     364.336     173.377
  C      -84.744     364.557     173.500
  O      -85.536     364.393     172.563
  N      -85.180     364.982     174.723
  C      -84.395     365.237     175.807
  O      -84.843     365.610     176.887
  C      -82.941     365.039     175.610
  C      -82.507     364.605     174.425
  O      -76.821     362.849     172.986
  O      -77.462     364.426     174.968
  H      -77.079     361.998     172.590
  H      -84.051     364.590     169.848
  H      -86.169     365.134     174.835
  H      -82.286     365.255     176.444
  H      -81.444     364.459     174.257
  H      -83.687     363.217     171.657
  H      -83.075     365.991     171.368
  H      -80.760     365.620     172.025
  H      -80.905     363.100     170.279
  H      -79.197     362.245     171.854
  H      -78.596     363.653     170.974
  P      -79.503     366.906     170.214
  C      -77.359     365.976     169.039
  O      -78.441     366.879     169.018
  O      -78.669     366.400     171.487
  O      -80.211     368.200     170.423
  H      -78.387     365.469     171.409
  H      -76.970     365.862     168.020
  H      -77.670     364.993     169.404
  H      -76.562     366.368     169.674
  H      -78.318     360.595     175.947
  H      -77.647     362.135     176.429
  H      -76.846     361.177     175.207

 3  4  5  6  7  8  9  10  11  12  13  24  28  29  30  31  32 0
 6-311+G(2d,p)
 ****
 33  34 0
 6-311+G(2d,p)
 ****
 1  2  14  15  16  17  18  19  20  21  22  23  25  26  27 0
 3-21G
 ****
 35  36  37  38  39  40  41  42  43  44  45 0
 3-21G
 ****


