%nproc=1
%NoSave
%Mem=1900MB
#P OB98/GEN NMR

erre ene a

0 1
  C     -898.966    -806.142     -59.520
  O     -898.356    -807.373     -59.915
  P     -898.386    -808.579     -58.846
  C     -895.896    -808.131     -58.127
  O     -896.856    -809.045     -58.670
  C     -894.796    -808.901     -57.397
  O     -895.356    -809.612     -56.243
  C     -894.106    -809.993     -58.239
  O     -893.226    -809.398     -59.168
  C     -893.456    -810.822     -57.153
  O     -892.236    -810.212     -56.716
  C     -894.506    -810.771     -56.014
  N     -895.286    -812.005     -55.914
  C     -894.576    -813.138     -55.521
  O     -893.366    -813.124     -55.314
  N     -895.306    -814.287     -55.417
  C     -896.636    -814.413     -55.667
  O     -897.246    -815.464     -55.512
  C     -897.336    -813.186     -56.108
  C     -896.646    -812.046     -56.221
  O     -899.046    -809.733     -59.713
  O     -899.086    -808.221     -57.587
  H     -898.806    -809.721     -60.645
  H     -891.886    -810.765     -55.976
  H     -894.816    -815.111     -55.131
  H     -898.386    -813.267     -56.322
  H     -897.126    -811.153     -56.530
  H     -894.016    -810.599     -55.057
  H     -893.196    -811.836     -57.494
  H     -894.866    -810.573     -58.769
  H     -894.056    -808.183     -57.018
  H     -896.386    -807.439     -57.447
  H     -895.466    -807.545     -58.947
  P     -893.836    -808.926     -60.571
  C     -892.116    -810.369     -61.915
  O     -892.666    -809.083     -61.671
  O     -893.966    -807.355     -60.362
  O     -895.116    -809.600     -60.924
  H     -893.156    -806.956     -59.943
  H     -891.606    -810.319     -62.893
  H     -892.876    -811.138     -61.967
  H     -891.366    -810.615     -61.170
  H     -898.878    -805.430     -60.314
  H     -898.475    -805.765     -58.647
  H     -900.000    -806.310     -59.304

 3  4  5  6  7  8  9  10  11  12  13  24  28  29  30  31  32 0
 6-311+G(2d,p)
 ****
 33  34 0
 6-311+G(2d,p)
 ****
 1  2  14  15  16  17  18  19  20  21  22  23  25  26  27 0
 3-21G
 ****
 35  36  37  38  39  40  41  42  43  44  45 0
 3-21G
 ****


