%nproc=1
%NoSave
%Mem=1900MB
#P OB98/GEN NMR

erre ene a

0 1
  C     -234.285    -138.062     -29.772
  O     -233.140    -138.536     -29.052
  P     -232.425    -139.865     -29.600
  C     -229.968    -139.261     -28.917
  O     -231.120    -140.058     -28.687
  C     -229.535    -138.582     -27.619
  O     -230.564    -137.680     -27.149
  C     -229.280    -139.543     -26.470
  O     -228.055    -140.241     -26.637
  C     -229.320    -138.590     -25.281
  O     -228.065    -137.906     -25.149
  C     -230.422    -137.595     -25.709
  N     -231.691    -137.823     -25.032
  C     -231.744    -137.437     -23.696
  O     -230.781    -136.955     -23.095
  N     -232.939    -137.643     -23.061
  C     -234.050    -138.210     -23.612
  O     -235.097    -138.360     -22.994
  C     -233.917    -138.644     -25.013
  C     -232.765    -138.433     -25.650
  O     -231.857    -139.352     -31.004
  O     -233.346    -141.034     -29.676
  H     -231.566    -138.424     -30.982
  H     -228.169    -137.282     -24.402
  H     -233.001    -137.359     -22.095
  H     -234.774    -139.120     -25.474
  H     -232.648    -138.748     -26.682
  H     -230.103    -136.568     -25.495
  H     -229.517    -139.108     -24.336
  H     -230.106    -140.263     -26.396
  H     -228.630    -137.994     -27.829
  H     -230.187    -138.495     -29.668
  H     -229.172    -139.897     -29.315
  P     -228.049    -141.801     -26.251
  C     -227.000    -142.940     -28.356
  O     -226.822    -142.459     -27.046
  O     -229.345    -142.320     -27.034
  O     -228.077    -142.055     -24.781
  H     -229.407    -141.968     -27.940
  H     -226.022    -143.018     -28.840
  H     -227.632    -142.270     -28.948
  H     -227.456    -143.934     -28.324
  H     -234.660    -137.177     -29.303
  H     -235.045    -138.816     -29.770
  H     -234.005    -137.840     -30.781

 3  4  5  6  7  8  9  10  11  12  13  24  28  29  30  31  32 0
 6-311+G(2d,p)
 ****
 33  34 0
 6-311+G(2d,p)
 ****
 1  2  14  15  16  17  18  19  20  21  22  23  25  26  27 0
 3-21G
 ****
 35  36  37  38  39  40  41  42  43  44  45 0
 3-21G
 ****


