%nproc=1
%NoSave
%Mem=1900MB
#P OB98/GEN NMR

erre ene a

0 1
  C     -118.172      47.521    -246.215
  O     -117.135      48.493    -246.376
  P     -117.212      49.432    -247.677
  C     -117.171      51.656    -246.350
  O     -116.530      50.842    -247.323
  C     -116.746      53.123    -246.481
  O     -115.333      53.283    -246.162
  C     -116.954      53.702    -247.883
  O     -117.289      55.088    -247.739
  C     -115.575      53.600    -248.505
  O     -115.435      54.472    -249.622
  C     -114.705      53.926    -247.292
  N     -110.159      53.540    -245.000
  C     -111.337      54.052    -244.588
  N     -112.501      54.137    -245.271
  C     -112.374      53.580    -246.488
  C     -111.235      53.030    -247.050
  C     -110.078      53.022    -246.249
  N     -108.871      52.526    -246.678
  N     -111.487      52.604    -248.341
  C     -112.754      52.900    -248.551
  N     -113.340      53.461    -247.452
  O     -118.771      49.780    -247.782
  O     -116.713      48.778    -248.923
  H     -116.213      54.348    -250.206
  H     -119.168      49.303    -248.533
  H     -111.349      54.451    -243.576
  H     -113.289      52.736    -249.474
  H     -114.655      55.004    -247.092
  H     -115.397      52.571    -248.848
  H     -117.720      53.194    -248.479
  H     -117.314      53.714    -245.751
  H     -116.927      51.300    -245.344
  H     -108.082      52.585    -246.051
  H     -108.787      52.181    -247.621
  H     -118.256      51.546    -246.450
  P     -118.850      55.452    -247.760
  C     -118.622      57.199    -245.856
  O     -118.969      56.950    -247.204
  O     -119.465      54.559    -246.581
  O     -119.521      55.191    -249.070
  H     -120.409      54.383    -246.750
  H     -118.077      58.146    -245.800
  H     -117.996      56.405    -245.435
  H     -119.537      57.281    -245.262
  H     -118.004      46.966    -245.316
  H     -118.169      46.854    -247.052
  H     -119.119      48.016    -246.157

 3  4  5  6  7  8  9  10  11  12  22  25  29  30  31  32 0
 6-311+G(2d,p)
 ****
 33  36  37 0
 6-311+G(2d,p)
 ****
 1  2  13  14  15  16  17  18  19  20  21  23  24  26 0
 3-21G
 ****
 27  28  34  35  38  39  40  41  42  43  44  45  46  47  48 0
 3-21G
 ****


