%nproc=1
%NoSave
%Mem=1900MB
#P OB98/GEN NMR

erre ene a

0 1
  C       54.886     470.458    -322.599
  O       56.274     470.243    -322.846
  P       56.777     470.374    -324.364
  C       57.493     467.848    -324.374
  O       57.840     469.199    -324.627
  C       58.484     467.199    -323.389
  O       59.822     467.301    -323.950
  C       58.575     467.872    -322.021
  O       59.176     466.956    -321.103
  C       59.533     469.008    -322.293
  O       60.088     469.524    -321.091
  C       60.537     468.370    -323.273
  N       61.075     469.322    -324.271
  C       62.239     470.027    -323.958
  O       62.836     469.914    -322.890
  N       62.673     470.921    -324.899
  C       62.107     471.148    -326.117
  O       62.481     472.023    -326.889
  C       60.971     470.276    -326.456
  C       60.516     469.425    -325.535
  O       57.667     471.708    -324.353
  O       55.678     470.444    -325.363
  H       60.836     470.115    -321.347
  H       57.180     472.434    -324.791
  H       63.470     471.492    -324.649
  H       60.540     470.371    -327.445
  H       59.660     468.789    -325.768
  H       61.391     467.939    -322.742
  H       59.002     469.827    -322.781
  H       57.623     468.217    -321.625
  H       58.252     466.137    -323.289
  H       57.466     467.289    -325.308
  H       56.484     467.805    -323.951
  P       58.377     466.592    -319.759
  C       60.697     466.464    -318.663
  O       59.420     465.865    -318.790
  O       57.063     465.900    -319.945
  O       58.188     468.031    -319.058
  H       57.473     467.982    -318.401
  H       61.100     466.242    -317.677
  H       60.647     467.549    -318.792
  H       61.365     466.042    -319.425
  H       54.687     470.341    -321.554
  H       54.311     469.746    -323.153
  H       54.619     471.448    -322.904

 3  4  5  6  7  8  9  10  11  12  13  23  28  29  30  31  32 0
 6-311+G(2d,p)
 ****
 33  34 0
 6-311+G(2d,p)
 ****
 1  2  14  15  16  17  18  19  20  21  22  24  25  26  27 0
 3-21G
 ****
 35  36  37  38  39  40  41  42  43  44  45 0
 3-21G
 ****


