%nproc=1
%NoSave
%Mem=1900MB
#P OB98/GEN NMR

erre ene a

0 1
  C      645.306    -129.438    -497.082
  O      645.823    -130.322    -496.101
  H      644.907    -130.029    -497.907
  H      646.104    -128.793    -497.459
  H      644.501    -128.831    -496.655
  P      646.448    -129.645    -494.790
  C      644.654    -130.659    -493.188
  O      645.235    -129.489    -493.750
  C      644.297    -130.423    -491.715
  O      643.540    -129.178    -491.611
  C      643.418    -131.526    -491.106
  O      643.700    -131.584    -489.694
  C      642.023    -130.965    -491.323
  O      641.072    -131.665    -490.551
  C      642.283    -129.505    -490.983
  N      638.039    -126.983    -489.651
  C      638.890    -127.742    -488.933
  N      640.008    -128.373    -489.358
  C      640.226    -128.129    -490.658
  C      639.451    -127.368    -491.518
  C      638.301    -126.775    -490.962
  N      637.424    -125.999    -491.691
  N      639.988    -127.361    -492.789
  C      641.078    -128.109    -492.698
  N      641.249    -128.599    -491.434
  O      646.746    -128.142    -495.252
  O      647.664    -130.311    -494.240
  H      641.339    -131.688    -489.608
  H      647.674    -128.061    -495.542
  H      638.643    -127.868    -487.884
  H      641.756    -128.326    -493.513
  H      642.405    -129.350    -489.905
  H      641.716    -131.078    -492.369
  H      643.586    -132.514    -491.549
  H      645.218    -130.277    -491.140
  H      645.381    -131.480    -493.264
  H      643.752    -130.923    -493.746
  H      636.616    -125.627    -491.222
  H      637.605    -125.855    -492.675
  P      644.697    -132.718    -489.141
  C      646.985    -131.459    -489.278
  O      646.145    -132.483    -489.785
  O      644.192    -134.019    -489.926
  O      644.666    -132.947    -487.667
  H      644.379    -134.814    -489.398
  H      647.905    -131.449    -489.825
  H      647.187    -131.643    -488.244
  H      646.497    -130.513    -489.383

 6  7  8  9  10  11  12  13  14  15  25  28  32  33  34  35 0
 6-311+G(2d,p)
 ****
 36  37  40 0
 6-311+G(2d,p)
 ****
 1  2  3  4  5  16  17  18  19  20  21  22  23  24 0
 3-21G
 ****
 26  27  29  30  31  38  39 41  42  43  44  45  46  47  48 0
 3-21G
 ****


