%nproc=1
%NoSave
%Mem=1900MB
#P OB98/GEN NMR

erre ene a

0 1
  C      194.570      -1.517    -164.521
  O      194.648      -0.306    -163.796
  H      194.252      -1.294    -165.543
  H      193.844      -2.198    -164.068
  H      195.553      -1.995    -164.558
  P      194.845      -0.389    -162.205
  C      192.755       1.127    -162.122
  O      193.414      -0.013    -161.576
  C      191.255       0.869    -162.281
  O      191.033      -0.213    -163.207
  C      190.568       0.440    -160.994
  O      190.476       1.458    -160.021
  C      189.300      -0.229    -161.507
  O      188.232       0.685    -161.739
  C      189.777      -0.828    -162.852
  N      189.879      -2.282    -162.797
  C      188.681      -2.967    -162.631
  O      187.589      -2.409    -162.513
  N      188.777      -4.329    -162.562
  C      189.935      -5.050    -162.589
  O      189.958      -6.270    -162.481
  C      191.173      -4.269    -162.740
  C      191.090      -2.940    -162.836
  O      195.982       0.414    -161.647
  O      194.965      -1.958    -161.919
  H      188.056       1.142    -160.894
  H      195.349      -2.128    -161.026
  H      187.918      -4.844    -162.452
  H      192.111      -4.809    -162.764
  H      191.992      -2.340    -162.945
  H      189.071      -0.573    -163.652
  H      188.931      -0.979    -160.803
  H      191.169      -0.357    -160.538
  H      190.791       1.771    -162.695
  H      193.193       1.323    -163.107
  H      192.928       1.996    -161.480
  P      191.276       1.426    -158.639
  C      189.243       0.537    -157.286
  O      190.592       0.324    -157.688
  O      191.654       2.745    -158.049
  O      192.642       0.687    -159.082
  H      193.367       1.069    -158.550
  H      188.925      -0.271    -156.661
  H      188.616       0.586    -158.152
  H      189.174       1.456    -156.743

 6  7  8  9  10  11  12  13  14  15  16  26  31  32  33  34  35 0
 6-311+G(2d,p)
 ****
 36  37 0
 6-311+G(2d,p)
 ****
 1  2  3  4  5  17  18  19  20  21  22  23  24  25 0
 3-21G
 ****
 27  28  29  30  38  39  40  41  42  43  44  45 0
 3-21G
 ****


