%nproc=1
%NoSave
%Mem=1900MB
#P OB98/GEN NMR

erre ene a

0 1
  C     -649.549     -34.166     127.249
  O     -648.490     -33.593     126.508
  H     -649.499     -35.254     127.152
  H     -650.511     -33.820     126.859
  H     -649.460     -33.899     128.306
  P     -648.373     -31.994     126.537
  C     -645.774     -31.954     126.543
  O     -646.972     -31.628     125.847
  C     -644.643     -32.177     125.538
  O     -644.749     -33.502     124.968
  C     -644.679     -31.221     124.355
  O     -644.157     -29.941     124.673
  C     -643.831     -31.981     123.342
  O     -642.432     -31.760     123.561
  C     -644.191     -33.440     123.637
  N     -644.758     -36.704     119.752
  C     -643.716     -36.452     120.573
  N     -643.646     -35.574     121.596
  C     -644.822     -34.937     121.751
  C     -645.972     -35.089     120.995
  C     -645.915     -36.025     119.948
  N     -646.966     -36.267     119.093
  N     -646.961     -34.231     121.433
  C     -646.423     -33.578     122.442
  N     -645.135     -33.975     122.673
  O     -648.131     -31.676     128.087
  O     -649.558     -31.264     125.998
  H     -641.967     -32.171     122.805
  H     -648.969     -31.393     128.497
  H     -642.815     -37.020     120.377
  H     -646.919     -32.810     123.027
  H     -643.310     -34.095     123.624
  H     -644.063     -31.667     122.324
  H     -645.698     -31.136     123.964
  H     -643.686     -32.109     126.071
  H     -645.927     -32.870     127.123
  H     -645.527     -31.135     127.227
  H     -646.833     -36.901     118.323
  H     -647.794     -35.683     119.162
  P     -644.785     -28.676     123.921
  C     -645.178     -27.380     126.153
  O     -644.567     -27.402     124.870
  O     -646.366     -28.930     123.991
  O     -644.318     -28.489     122.518
  H     -646.792     -28.603     123.174
  H     -644.932     -26.465     126.650
  H     -644.822     -28.207     126.732
  H     -646.240     -27.452     126.044

 6  7  8  9  10  11  12  13  14  15  25  28  32  33  34  35 0
 6-311+G(2d,p)
 ****
 36  37  40 0
 6-311+G(2d,p)
 ****
 1  2  3  4  5  16  17  18  19  20  21  22  23  24 0
 3-21G
 ****
 26  27  29  30  31  38  39 41  42  43  44  45  46  47  48 0
 3-21G
 ****


