%nproc=1
%NoSave
%Mem=1900MB
#P OB98/GEN NMR

erre ene a

0 1
  C       -5.643    -470.993     315.027
  O       -6.493    -472.140     315.019
  P       -6.112    -473.394     314.097
  C       -7.536    -472.699     312.057
  O       -6.228    -472.951     312.544
  C       -7.736    -473.187     310.616
  O       -9.137    -473.221     310.263
  C       -7.020    -472.333     309.558
  O       -6.566    -473.227     308.520
  C       -8.147    -471.453     309.040
  O       -7.843    -470.868     307.774
  C       -9.305    -472.453     309.054
  N      -10.617    -471.789     309.004
  C      -11.043    -471.328     307.748
  O      -10.277    -471.385     306.787
  N      -12.293    -470.786     307.658
  C      -12.988    -470.584     308.732
  N      -14.243    -470.066     308.594
  C      -12.501    -470.915     310.082
  C      -11.325    -471.529     310.137
  O       -6.810    -474.675     314.426
  O       -4.533    -473.525     314.308
  H       -7.777    -471.585     307.104
  H       -4.289    -474.471     314.273
  H      -13.084    -470.647     310.960
  H      -10.873    -471.810     311.081
  H       -9.237    -473.155     308.207
  H       -8.329    -470.636     309.752
  H       -6.162    -471.775     309.950
  H       -7.357    -474.217     310.569
  H      -14.563    -469.824     307.655
  H       -7.736    -471.621     312.096
  H      -14.870    -469.925     309.380
  H       -8.264    -473.163     312.736
  P       -4.991    -473.326     308.226
  C       -4.731    -471.329     306.574
  O       -4.459    -471.854     307.861
  O       -4.972    -474.044     306.792
  O       -4.179    -474.120     309.197
  H       -4.114    -474.505     306.677
  H       -4.563    -470.243     306.584
  H       -5.755    -471.518     306.259
  H       -4.051    -471.783     305.837
  H       -6.044    -470.257     315.692
  H       -5.583    -470.587     314.039
  H       -4.665    -471.276     315.356

 3  4  5  6  7  8  9  10  11  12  13  23  27  28  29  30  32 0
 6-311+G(2d,p)
 ****
 34  35 0
 6-311+G(2d,p)
 ****
 1  2  14  15  16  17  18  19  20  21  22  24  25  26 0
 3-21G
 ****
 31  33  36  37  38  39  40  41  42  43  44  45  46 0
 3-21G
 ****


