%nproc=1
%NoSave
%Mem=1900MB
#P OB98/GEN NMR

erre ene a

0 1
  C       23.432      24.448      52.887
  O       23.511      24.744      51.508
  H       22.533      23.866      53.097
  H       24.307      23.858      53.172
  H       23.424      25.371      53.472
  P       22.294      25.577      50.877
  C       23.970      27.503      50.428
  O       22.702      27.131      50.949
  C       24.032      29.017      50.244
  O       23.423      29.348      48.971
  C       23.317      29.826      51.340
  O       24.232      30.730      51.965
  C       22.274      30.640      50.589
  O       22.146      31.975      51.076
  C       22.772      30.611      49.149
  N       20.839      33.625      45.525
  C       22.093      33.506      46.013
  N       22.566      32.611      46.903
  C       21.598      31.756      47.275
  C       20.282      31.736      46.847
  C       19.903      32.741      45.941
  N       18.612      32.896      45.486
  N       19.583      30.713      47.459
  C       20.452      30.152      48.275
  N       21.677      30.761      48.212
  O       21.143      25.440      51.982
  O       21.833      25.107      49.538
  H       21.526      32.433      50.477
  H       20.304      25.190      51.551
  H       22.812      34.233      45.646
  H       20.239      29.342      48.961
  H       23.505      31.402      48.950
  H       21.301      30.144      50.684
  H       22.847      29.189      52.098
  H       25.087      29.313      50.183
  H       24.123      27.021      49.457
  H       18.406      33.712      44.933
  H       17.889      32.310      45.877
  H       24.751      27.162      51.114
  P       24.939      30.218      53.317
  C       27.448      30.621      52.756
  O       26.397      29.679      52.919
  O       24.132      28.878      53.658
  O       24.891      31.202      54.437
  H       24.159      28.707      54.618
  H       28.349      30.108      52.493
  H       27.595      31.154      53.672
  H       27.191      31.311      51.980

 6  7  8  9  10  11  12  13  14  15  25  28  32  33  34  35 0
 6-311+G(2d,p)
 ****
 36  39  40 0
 6-311+G(2d,p)
 ****
 1  2  3  4  5  16  17  18  19  20  21  22  23  24 0
 3-21G
 ****
 26  27  29  30  31  37  38  41  42  43  44  45  46  47  48 0
 3-21G
 ****


