%nproc=1
%NoSave
%Mem=1900MB
#P OB98/GEN NMR

erre ene a

0 1
  C      547.693    -973.215    -565.472
  O      546.892    -974.295    -565.906
  H      547.597    -973.120    -564.388
  H      547.371    -972.277    -565.940
  H      548.747    -973.407    -565.712
  P      546.871    -974.581    -567.482
  C      546.002    -972.168    -567.761
  O      545.788    -973.540    -568.062
  C      545.420    -971.278    -568.857
  O      546.202    -971.468    -570.071
  C      543.961    -971.582    -569.192
  O      543.279    -970.362    -569.472
  C      544.054    -972.421    -570.456
  O      542.863    -972.334    -571.260
  C      545.298    -971.832    -571.127
  N      546.087    -972.974    -576.042
  C      545.546    -971.895    -575.447
  N      545.386    -971.668    -574.116
  C      545.907    -972.680    -573.392
  C      546.491    -973.833    -573.854
  C      546.567    -973.981    -575.254
  N      547.099    -975.082    -575.872
  N      546.865    -974.659    -572.803
  C      546.509    -973.987    -571.717
  N      545.928    -972.789    -572.023
  O      546.659    -976.005    -567.879
  O      548.257    -973.935    -567.952
  H      542.101    -972.536    -570.701
  H      548.409    -973.061    -567.532
  H      545.177    -971.120    -576.104
  H      546.664    -974.327    -570.696
  H      545.081    -970.926    -571.716
  H      544.221    -973.476    -570.198
  H      543.452    -972.118    -568.386
  H      545.552    -970.225    -568.570
  H      547.076    -971.959    -567.643
  H      547.124    -975.105    -576.888
  H      547.483    -975.840    -575.315
  H      545.507    -971.954    -566.804
  P      542.799    -969.449    -568.237
  C      540.468    -970.502    -567.856
  O      541.204    -969.337    -568.270
  O      543.538    -968.163    -568.059
  O      543.051    -970.423    -566.981
  H      543.365    -969.887    -566.215
  H      539.419    -970.303    -567.922
  H      540.722    -970.744    -566.845
  H      540.716    -971.325    -568.493

 6  7  8  9  10  11  12  13  14  15  25  28  32  33  34  35 0
 6-311+G(2d,p)
 ****
 36  39  40 0
 6-311+G(2d,p)
 ****
 1  2  3  4  5  16  17  18  19  20  21  22  23  24 0
 3-21G
 ****
 26  27  29  30  31  37  38  41  42  43  44  45  46  47 0
 3-21G
 ****
 48 0
 3-21G
 ****


