%nproc=1
%NoSave
%Mem=1900MB
#P OB98/GEN NMR

erre ene a

0 1
  C     -395.901      89.094    -213.262
  O     -396.745      87.961    -213.175
  H     -394.957      88.790    -213.721
  H     -395.698      89.493    -212.266
  H     -396.367      89.860    -213.887
  P     -398.179      88.185    -212.494
  C     -399.622      87.231    -214.419
  O     -399.181      88.393    -213.729
  C     -399.518      87.435    -215.930
  O     -398.148      87.648    -216.310
  C     -400.011      86.255    -216.758
  O     -401.422      86.309    -216.907
  C     -399.304      86.511    -218.079
  O     -400.030      87.500    -218.834
  C     -397.948      87.087    -217.634
  N     -394.365      84.588    -220.330
  C     -395.418      85.340    -220.718
  N     -396.362      85.925    -219.951
  C     -396.134      85.685    -218.650
  C     -395.103      84.937    -218.104
  C     -394.182      84.374    -219.005
  N     -393.113      83.604    -218.607
  N     -395.192      84.902    -216.728
  C     -396.225      85.670    -216.445
  N     -396.853      86.138    -217.574
  O     -398.233      89.224    -211.422
  O     -398.526      86.697    -212.015
  H     -400.979      87.338    -218.673
  H     -398.260      86.051    -212.693
  H     -395.519      85.486    -221.791
  H     -396.549      85.935    -215.446
  H     -397.619      87.901    -218.288
  H     -399.241      85.619    -218.702
  H     -399.672      85.297    -216.346
  H     -400.071      88.346    -216.184
  H     -400.659      87.000    -214.148
  H     -392.623      83.089    -219.321
  H     -393.057      83.343    -217.633
  H     -398.986      86.395    -214.104
  P     -402.355      85.102    -216.410
  C     -403.904      86.558    -214.966
  O     -402.891      85.557    -214.970
  O     -401.712      83.758    -216.469
  O     -403.659      85.208    -217.329
  H     -404.163      84.373    -217.288
  H     -404.182      86.780    -213.957
  H     -404.759      86.202    -215.501
  H     -403.532      87.444    -215.437

 6  7  8  9  10  11  12  13  14  15  25  28  32  33  34  35 0
 6-311+G(2d,p)
 ****
 36  39  40 0
 6-311+G(2d,p)
 ****
 1  2  3  4  5  16  17  18  19  20  21  22  23  24 0
 3-21G
 ****
 26  27  29  30  31  37  38  41  42  43  44  45  46  47 0
 3-21G
 ****
 48 0
 3-21G
 ****


