%nproc=1
%NoSave
%Mem=1900MB
#P OB98/GEN NMR

erre ene a

0 1
  C     -233.454    -899.140     233.526
  O     -234.702    -898.920     232.902
  H     -233.159    -898.260     234.111
  H     -233.549    -900.000     234.202
  H     -232.677    -899.370     232.781
  P     -234.771    -897.710     231.847
  C     -233.962    -895.260     232.168
  O     -234.666    -896.360     232.718
  C     -233.531    -894.320     233.286
  O     -232.764    -895.020     234.285
  C     -232.643    -893.170     232.826
  O     -233.402    -892.090     232.259
  C     -232.026    -892.740     234.140
  O     -232.969    -891.980     234.910
  C     -231.783    -894.110     234.810
  N     -226.949    -894.300     236.488
  C     -228.031    -893.640     236.959
  N     -229.281    -893.650     236.452
  C     -229.355    -894.400     235.340
  C     -228.302    -895.110     234.741
  C     -227.064    -895.040     235.369
  N     -225.934    -895.680     234.883
  N     -228.758    -895.730     233.594
  C     -230.039    -895.450     233.531
  N     -230.441    -894.640     234.554
  O     -236.300    -897.720     231.376
  O     -233.822    -897.790     230.694
  H     -232.493    -891.620     235.687
  H     -236.394    -897.260     230.519
  H     -227.885    -893.060     237.856
  H     -230.713    -895.800     232.753
  H     -231.906    -894.070     235.899
  H     -231.135    -892.130     234.023
  H     -231.862    -893.500     232.151
  H     -234.442    -893.930     233.777
  H     -234.616    -894.730     231.469
  H     -225.059    -895.420     235.286
  H     -225.991    -896.110     233.970
  H     -233.080    -895.630     231.636
  P     -232.656    -891.120     231.210
  C     -231.063    -889.090     231.596
  O     -232.149    -889.870     232.077
  O     -233.854    -890.530     230.355
  O     -231.611    -891.790     230.375
  H     -233.545    -890.270     229.461
  H     -230.855    -888.302     232.290
  H     -231.319    -888.670     230.646
  H     -230.198    -889.710     231.490

 6  7  8  9  10  11  12  13  14  15  25  28  32  33  34  35 0
 6-311+G(2d,p)
 ****
 36  39  40 0
 6-311+G(2d,p)
 ****
 1  2  3  4  5  16  17  18  19  20  21  22  23  24 0
 3-21G
 ****
 26  27  29  30  31  37  38  41  42  43  44  45  46  47 0
 3-21G
 ****
 48 0
 3-21G
 ****


