%nproc=1
%NoSave
%Mem=1900MB
#P OB98/GEN NMR

erre ene a

0 1
  C     -121.284     233.311     237.054
  O     -121.188     234.528     237.774
  P     -122.115     235.745     237.274
  C     -120.836     237.763     236.213
  O     -121.325     236.439     236.063
  C     -119.330     237.727     236.487
  O     -118.690     236.764     235.629
  C     -118.620     239.054     236.243
  O     -118.776     239.914     237.359
  C     -117.183     238.590     236.019
  O     -116.519     238.345     237.274
  C     -117.388     237.288     235.237
  N     -114.539     238.838     231.358
  C     -114.341     238.980     232.721
  N     -113.192     239.584     233.098
  N     -115.185     238.565     233.626
  C     -116.295     237.992     233.099
  C     -116.616     237.806     231.770
  C     -115.646     238.222     230.784
  O     -115.728     238.035     229.574
  N     -117.840     237.209     231.626
  C     -118.244     237.004     232.863
  N     -117.336     237.439     233.794
  O     -122.004     236.799     238.469
  O     -123.532     235.380     236.956
  H     -116.972     237.621     237.742
  H     -122.781     236.736     239.058
  H     -113.844     239.163     230.707
  H     -119.172     236.523     233.137
  H     -116.644     236.528     235.504
  H     -116.587     239.341     235.491
  H     -112.506     239.950     232.458
  H     -119.002     239.530     235.333
  H     -113.032     239.702     234.094
  H     -119.186     237.398     237.525
  H     -121.345     238.240     237.057
  H     -121.054     238.329     235.304
  P     -118.851     241.491     237.074
  C     -116.408     242.293     237.447
  O     -117.417     241.941     236.521
  O     -118.915     242.126     238.545
  O     -120.018     241.915     236.248
  H     -119.490     242.913     238.537
  H     -115.435     242.059     237.012
  H     -116.517     241.748     238.391
  H     -116.461     243.366     237.646
  H     -120.622     232.589     237.484
  H     -121.014     233.479     236.032
  H     -122.289     232.947     237.102

 3  4  5  6  7  8  9  10  11  12  23  26  30  31 0
 6-311+G(2d,p)
 ****
 33  35  36  37  38 0
 6-311+G(2d,p)
 ****
 1  2  13  14  15  16  17  18  19  20  21  22  24  25 0
 3-21G
 ****
 27  28  29  32  34  39  40  41  42  43  44  45  46  47  48  49 0
 3-21G
 ****


