%nproc=1
%NoSave
%Mem=1900MB
#P OB98/GEN NMR

erre ene a

0 1
  C     -177.691     172.110     323.106
  O     -176.365     172.253     323.576
  H     -178.057     171.119     323.389
  H     -177.717     172.193     322.016
  H     -178.343     172.865     323.556
  P     -175.620     173.659     323.380
  C     -173.398     172.573     322.679
  O     -174.058     173.394     323.632
  C     -172.135     171.958     323.279
  O     -172.437     170.611     323.722
  C     -170.960     171.878     322.296
  O     -169.754     172.148     323.010
  C     -170.976     170.430     321.850
  O     -169.690     169.978     321.429
  C     -171.495     169.720     323.098
  N     -170.661     165.063     321.322
  C     -169.771     166.079     321.608
  N     -168.466     165.835     321.360
  N     -170.131     167.242     322.090
  C     -171.467     167.344     322.302
  C     -172.446     166.413     322.060
  C     -172.036     165.135     321.514
  O     -172.778     164.202     321.229
  N     -173.691     166.901     322.382
  C     -173.457     168.129     322.813
  N     -172.125     168.450     322.773
  O     -176.188     174.798     324.165
  O     -175.699     173.926     321.807
  H     -169.745     169.002     321.330
  H     -176.416     174.553     321.597
  H     -170.335     164.191     320.942
  H     -174.214     168.825     323.157
  H     -170.693     169.502     323.818
  H     -171.674     170.308     321.010
  H     -168.115     164.961     321.004
  H     -171.062     172.572     321.456
  H     -167.793     166.560     321.585
  H     -171.858     172.532     324.174
  H     -173.132     173.194     321.816
  H     -174.081     171.782     322.348
  P     -168.738     173.244     322.425
  C     -166.780     171.645     322.929
  O     -167.288     172.969     323.054
  O     -169.207     174.659     322.492
  O     -168.549     172.769     320.901
  H     -168.370     173.554     320.348
  H     -165.813     171.589     323.384
  H     -166.702     171.389     321.893
  H     -167.443     170.961     323.416

 6  7  8  9  10  11  12  13  14  15  26  29  33  34 0
 6-311+G(2d,p)
 ****
 36  38  39  40  41 0
 6-311+G(2d,p)
 ****
 1  2  3  4  5  16  17  18  19  20  21  22  23  24  25 0
 3-21G
 ****
 27  28  30  31  32  35  37  42  43  44  45  46  47 0
 3-21G
 ****
 48  49 0
 3-21G
 ****


