%nproc=1
%NoSave
%Mem=1900MB
#P OB98/GEN NMR

erre ene a

0 1
  C       35.129      97.085      19.846
  O       34.898      95.687      20.044
  P       34.075      95.287      21.363
  C       35.991      95.958      22.973
  O       34.641      96.165      22.584
  C       36.371      96.840      24.167
  O       36.228      98.253      23.841
  C       35.523      96.583      25.418
  O       36.380      96.776      26.552
  C       34.505      97.708      25.370
  O       33.896      97.919      26.642
  C       35.395      98.842      24.865
  N       32.114     102.495      26.039
  C       32.583     101.442      26.800
  N       32.154     101.381      28.078
  N       33.403     100.528      26.348
  C       33.780     100.740      25.063
  C       33.398     101.751      24.212
  C       32.464     102.736      24.716
  O       32.022     103.688      24.086
  N       34.021     101.643      22.989
  C       34.722     100.526      23.092
  N       34.653      99.974      24.342
  O       34.594      93.808      21.680
  O       32.593      95.330      21.180
  H       33.289      98.686      26.554
  H       33.945      93.150      21.369
  H       31.470     103.159      26.433
  H       35.313     100.090      22.305
  H       36.049      99.240      25.653
  H       33.718      97.475      24.644
  H       31.561     102.079      28.505
  H       35.060      95.593      25.458
  H       32.513     100.643      28.670
  H       37.429      96.665      24.398
  H       36.658      96.182      22.138
  H       36.138      94.897      23.202
  P       36.767      95.491      27.424
  C       34.806      95.422      29.112
  O       35.403      94.852      27.966
  O       37.425      96.131      28.738
  O       37.713      94.547      26.758
  H       38.183      95.585      29.022
  H       33.732      95.228      29.084
  H       34.968      96.503      29.161
  H       35.225      94.956      30.008
  H       35.683      97.230      18.942
  H       35.686      97.475      20.672
  H       34.191      97.595      19.776

 3  4  5  6  7  8  9  10  11  12  23  26  30  31 0
 6-311+G(2d,p)
 ****
 33  35  36  37  38 0
 6-311+G(2d,p)
 ****
 1  2  13  14  15  16  17  18  19  20  21  22  24  25 0
 3-21G
 ****
 27  28  29  32  34  39  40  41  42  43  44  45  46  47  48  49 0
 3-21G
 ****


