%nproc=1
%NoSave
%Mem=1900MB
#P OB98/GEN NMR

erre ene a

0 1
  C     1051.705     648.936    -587.331
  O     1052.757     648.522    -586.483
  H     1051.509     648.144    -588.059
  H     1051.979     649.847    -587.872
  H     1050.795     649.108    -586.745
  P     1053.312     649.560    -585.396
  C     1053.246     647.914    -583.394
  O     1054.061     648.629    -584.308
  C     1054.074     647.434    -582.202
  O     1054.977     646.373    -582.593
  C     1054.971     648.511    -581.586
  O     1054.263     649.466    -580.808
  C     1055.879     647.623    -580.728
  O     1055.171     647.210    -579.558
  C     1056.114     646.424    -581.691
  N     1057.367     646.555    -582.460
  C     1058.546     646.270    -581.768
  O     1058.528     645.936    -580.589
  N     1059.745     646.401    -582.430
  C     1059.756     646.810    -583.675
  N     1060.983     646.984    -584.264
  C     1058.529     647.108    -584.436
  C     1057.372     646.964    -583.782
  O     1052.327     650.533    -584.838
  O     1054.564     650.267    -586.117
  H     1055.734     646.571    -579.084
  H     1054.941     650.925    -585.489
  H     1058.594     647.448    -585.458
  H     1056.445     647.175    -584.264
  H     1056.141     645.482    -581.130
  H     1056.799     648.132    -580.399
  H     1055.584     648.995    -582.357
  H     1053.379     647.018    -581.463
  H     1061.795     646.811    -583.698
  H     1052.795     647.064    -583.925
  H     1061.073     647.542    -585.098
  H     1052.446     648.555    -583.013
  P     1054.806     650.990    -580.815
  C     1052.576     652.243    -580.356
  O     1053.834     651.812    -579.852
  O     1054.432     651.493    -582.282
  O     1056.265     651.141    -580.476
  H     1055.192     651.368    -582.894
  H     1052.049     652.776    -579.592
  H     1052.002     651.392    -580.658
  H     1052.730     652.886    -581.198

 6  7  8  9  10  11  12  13  14  15  16  26  30  31  32  33  35 0
 6-311+G(2d,p)
 ****
 37  38 0
 6-311+G(2d,p)
 ****
 1  2  3  4  5  17  18  19  20  21  22  23  24  25 0
 3-21G
 ****
 27  28  29  34  36  39  40  41  42  43  44  45  46 0
 3-21G
 ****


