%nproc=1
%NoSave
%Mem=1900MB
#P OB98/GEN NMR

erre ene a

0 1
  C     -462.773     226.185     352.330
  O     -463.439     226.802     351.245
  H     -462.133     225.387     351.942
  H     -463.501     225.744     353.019
  H     -462.145     226.910     352.860
  P     -464.370     228.074     351.529
  C     -466.521     227.193     350.420
  O     -465.452     228.132     350.345
  C     -467.039     226.854     349.025
  O     -466.143     225.900     348.408
  C     -468.451     226.249     349.024
  O     -469.158     226.749     347.887
  C     -468.192     224.765     348.852
  O     -469.293     224.088     348.245
  C     -466.926     224.763     347.997
  N     -465.782     220.330     345.846
  C     -466.521     221.393     345.358
  N     -467.065     221.252     344.133
  N     -466.725     222.501     346.030
  C     -466.111     222.513     347.242
  C     -465.354     221.534     347.829
  C     -465.153     220.306     347.086
  O     -464.518     219.325     347.466
  N     -464.922     221.913     349.079
  C     -465.432     223.124     349.246
  N     -466.166     223.532     348.162
  O     -463.643     229.359     351.767
  O     -465.240     227.644     352.800
  H     -469.604     224.657     347.501
  H     -464.874     228.034     353.617
  H     -465.665     219.499     345.295
  H     -465.299     223.740     350.123
  H     -467.145     224.862     346.925
  H     -468.003     224.305     349.833
  H     -466.940     220.434     343.556
  H     -469.009     226.472     349.939
  H     -467.592     222.023     343.749
  H     -467.009     227.767     348.411
  H     -467.323     227.635     351.020
  H     -466.166     226.282     350.919
  P     -470.503     227.590     348.122
  C     -471.446     226.453     346.007
  O     -471.293     227.671     346.727
  O     -470.342     228.885     348.839
  O     -471.412     226.568     348.971
  H     -472.006     227.083     349.554
  H     -471.986     226.639     345.102
  H     -471.986     225.750     346.606
  H     -470.481     226.054     345.772

 6  7  8  9  10  11  12  13  14  15  26  29  33  34 0
 6-311+G(2d,p)
 ****
 36  38  39  40  41 0
 6-311+G(2d,p)
 ****
 1  2  3  4  5  16  17  18  19  20  21  22  23  24  25 0
 3-21G
 ****
 27  28  30  31  32  35  37  42  43  44  45  46  47 0
 3-21G
 ****
 48  49 0
 3-21G
 ****


