%nproc=1
%NoSave
%Mem=1900MB
#P OB98/GEN NMR

erre ene a

0 1
  C      168.790       8.079      15.798
  O      169.498       7.788      16.988
  H      169.422       8.704      15.160
  H      167.866       8.621      16.015
  H      168.561       7.153      15.263
  P      168.689       7.121      18.204
  C      167.889       9.514      18.743
  O      167.506       8.155      18.546
  C      166.706      10.361      19.209
  O      165.715      10.473      18.166
  C      165.956       9.782      20.398
  O      166.688       9.756      21.601
  C      164.643      10.546      20.341
  O      164.735      11.833      20.951
  C      164.442      10.698      18.813
  N      163.411       9.805      18.298
  C      162.106      10.097      18.679
  O      161.807      11.031      19.423
  N      161.142       9.252      18.200
  C      161.357       8.144      17.434
  O      160.449       7.413      17.054
  C      162.761       7.862      17.096
  C      163.711       8.694      17.535
  O      169.515       6.729      19.394
  O      167.916       5.897      17.525
  H      163.876      12.276      20.811
  H      167.580       5.264      18.207
  H      160.187       9.455      18.452
  H      162.971       6.985      16.501
  H      164.756       8.509      17.296
  H      164.150      11.728      18.569
  H      163.832      10.009      20.838
  H      165.714       8.735      20.173
  H      167.076      11.370      19.425
  H      168.254       9.899      17.784
  H      168.701       9.562      19.475
  P      166.925       8.437      22.465
  C      164.560       8.514      23.579
  O      165.501       7.782      22.800
  O      167.932       8.530      23.566
  O      167.509       7.419      21.355
  H      168.156       6.841      21.807
  H      163.671       7.932      23.705
  H      164.319       9.429      23.080
  H      164.983       8.731      24.538

 6  7  8  9  10  11  12  13  14  15  16  26  31  32  33  34  35 0
 6-311+G(2d,p)
 ****
 36  37 0
 6-311+G(2d,p)
 ****
 1  2  3  4  5  17  18  19  20  21  22  23  24  25 0
 3-21G
 ****
 27  28  29  30  38  39  40  41  42  43  44  45 0
 3-21G
 ****


