%nproc=1
%NoSave
%Mem=1900MB
#P OB98/GEN NMR

erre ene a

0 1
  C      119.735      71.086     -59.889
  O      118.834      70.230     -59.219
  H      119.258      72.060     -60.025
  H      119.981      70.678     -60.872
  H      120.649      71.224     -59.304
  P      119.350      68.794     -58.731
  C      117.556      67.292     -59.823
  O      118.904      67.737     -59.849
  C      117.358      66.101     -60.768
  O      117.335      66.598     -62.142
  C      118.474      65.039     -60.690
  O      117.873      63.777     -61.013
  C      119.397      65.513     -61.798
  O      120.377      64.563     -62.128
  C      118.350      65.865     -62.863
  N      118.844      66.645     -63.992
  C      118.606      66.151     -65.271
  O      118.006      65.107     -65.518
  N      119.095      66.912     -66.301
  C      119.767      68.093     -66.179
  O      120.154      68.746     -67.141
  C      119.993      68.559     -64.803
  C      119.525      67.828     -63.789
  O      118.996      68.420     -57.331
  O      120.937      68.876     -58.935
  H      121.370      69.033     -58.075
  H      120.918      64.906     -62.873
  H      118.929      66.572     -67.234
  H      120.534      69.486     -64.670
  H      119.667      68.150     -62.763
  H      117.878      64.950     -63.238
  H      119.940      66.403     -61.474
  H      118.940      64.980     -59.704
  H      116.374      65.657     -60.575
  H      116.915      68.124     -60.139
  H      117.291      67.007     -58.800
  P      117.679      62.591     -59.948
  C      119.789      61.146     -60.348
  O      119.135      62.082     -59.499
  O      116.778      61.498     -60.417
  O      117.096      63.295     -58.633
  H      116.577      62.648     -58.120
  H      120.743      60.894     -59.933
  H      119.925      61.578     -61.317
  H      119.192      60.262     -60.432

 6  7  8  9  10  11  12  13  14  15  16  27  31  32  33  34  35 0
 6-311+G(2d,p)
 ****
 36  37 0
 6-311+G(2d,p)
 ****
 1  2  3  4  5  17  18  19  20  21  22  23  24  25 0
 3-21G
 ****
 26  28  29  30  38  39  40  41  42  43  44  45 0
 3-21G
 ****


