%nproc=1
%NoSave
%Mem=1900MB
#P OB98/GEN NMR

erre ene a

0 1
  C      -24.503    -896.645    -247.202
  O      -24.567    -897.065    -245.855
  H      -24.928    -895.645    -247.279
  H      -25.091    -897.325    -247.830
  H      -23.465    -896.615    -247.547
  P      -23.910    -898.485    -245.507
  C      -21.437    -897.785    -245.876
  O      -22.531    -898.565    -246.338
  C      -20.115    -898.515    -246.119
  O      -19.997    -898.815    -247.546
  C      -18.869    -897.705    -245.717
  O      -17.886    -898.635    -245.219
  C      -18.360    -897.165    -247.041
  O      -16.983    -896.805    -246.999
  C      -18.689    -898.335    -247.960
  N      -15.787    -896.475    -251.629
  C      -15.485    -896.795    -250.330
  N      -14.204    -896.595    -249.931
  N      -16.361    -897.275    -249.476
  C      -17.595    -897.455    -250.013
  C      -18.018    -897.175    -251.288
  C      -17.049    -896.625    -252.210
  O      -17.275    -896.295    -253.381
  N      -19.359    -897.475    -251.437
  C      -19.726    -897.955    -250.259
  N      -18.689    -897.955    -249.360
  O      -24.877    -899.515    -246.269
  O      -23.794    -898.795    -244.050
  H      -16.698    -896.615    -247.912
  H      -25.570    -899.835    -245.662
  H      -15.093    -896.085    -252.236
  H      -20.718    -898.295    -250.003
  H      -17.980    -899.165    -247.847
  H      -18.946    -896.265    -247.330
  H      -13.467    -896.275    -250.537
  H      -19.054    -896.935    -244.962
  H      -13.949    -896.875    -248.984
  H      -20.145    -899.475    -245.596
  H      -21.554    -897.605    -244.800
  H      -21.436    -896.825    -246.402
  P      -17.008    -898.185    -243.947
  C      -18.616    -899.285    -242.218
  O      -17.982    -898.095    -242.679
  O      -16.680    -896.645    -244.259
  O      -15.759    -898.985    -243.759
  H      -15.848    -896.395    -243.840
  H      -19.229    -899.057    -241.371
  H      -17.871    -900.000    -241.938
  H      -19.224    -899.690    -242.999

 6  7  8  9  10  11  12  13  14  15  26  29  33  34 0
 6-311+G(2d,p)
 ****
 36  38  39  40  41 0
 6-311+G(2d,p)
 ****
 1  2  3  4  5  16  17  18  19  20  21  22  23  24  25 0
 3-21G
 ****
 27  28  30  31  32  35  37  42  43  44  45  46  47 0
 3-21G
 ****
 48  49 0
 3-21G
 ****


