%nproc=1
%NoSave
%Mem=1900MB
#P OB98/GEN NMR

erre ene a

0 1
  C      -43.066    -471.925     -71.409
  O      -44.433    -471.881     -71.047
  P      -45.541    -472.542     -71.995
  C      -45.330    -470.753     -73.826
  O      -46.195    -471.384     -72.888
  C      -45.983    -469.495     -74.395
  O      -47.269    -469.804     -74.981
  C      -46.271    -468.424     -73.355
  O      -45.093    -467.769     -72.926
  C      -47.258    -467.545     -74.112
  O      -46.570    -466.656     -75.004
  C      -48.060    -468.593     -74.910
  N      -49.371    -468.849     -74.329
  C      -50.429    -468.092     -74.843
  O      -50.217    -467.209     -75.674
  N      -51.699    -468.350     -74.389
  C      -51.878    -469.195     -73.424
  N      -53.162    -469.455     -73.058
  C      -50.767    -469.895     -72.747
  C      -49.555    -469.694     -73.260
  O      -46.522    -473.429     -71.303
  O      -44.687    -473.373     -73.066
  H      -45.044    -474.281     -73.118
  H      -47.235    -466.334     -75.643
  H      -50.964    -470.538     -71.902
  H      -48.683    -470.183     -72.841
  H      -48.191    -468.263     -75.946
  H      -47.862    -466.924     -73.441
  H      -46.774    -468.875     -72.491
  H      -45.330    -469.099     -75.184
  H      -53.898    -468.971     -73.559
  H      -45.118    -471.457     -74.637
  H      -53.428    -470.304     -72.567
  H      -44.385    -470.505     -73.332
  P      -45.141    -467.053     -71.491
  C      -45.664    -464.748     -72.550
  O      -44.810    -465.504     -71.715
  O      -43.839    -467.619     -70.751
  O      -46.378    -467.329     -70.701
  H      -44.029    -467.745     -69.803
  H      -45.523    -463.688     -72.327
  H      -46.714    -465.007     -72.386
  H      -45.402    -464.926     -73.597
  H      -42.482    -471.435     -70.658
  H      -42.929    -471.428     -72.347
  H      -42.753    -472.944     -71.496

 3  4  5  6  7  8  9  10  11  12  13  24  27  28  29  30  32 0
 6-311+G(2d,p)
 ****
 34  35 0
 6-311+G(2d,p)
 ****
 1  2  14  15  16  17  18  19  20  21  22  23  25  26 0
 3-21G
 ****
 31  33  36  37  38  39  40  41  42  43  44  45  46 0
 3-21G
 ****


