%nproc=1
%NoSave
%Mem=1900MB
#P OB98/GEN NMR

erre ene a

0 1
  C     1136.178       2.059    1519.683
  O     1137.460       2.582    1520.016
  P     1138.434       1.634    1520.900
  C     1137.524       2.567    1523.168
  O     1138.656       2.375    1522.289
  C     1137.997       2.761    1524.593
  O     1138.742       1.599    1525.040
  C     1138.925       3.961    1524.818
  O     1138.210       5.176    1524.927
  C     1139.556       3.592    1526.141
  O     1138.685       3.913    1527.231
  C     1139.737       2.075    1526.038
  N     1143.870      -0.530    1527.331
  C     1142.617      -0.474    1527.948
  N     1142.447      -1.198    1529.067
  N     1141.593       0.181    1527.464
  C     1141.910       0.875    1526.301
  C     1143.102       0.887    1525.610
  C     1144.212       0.142    1526.175
  O     1145.353       0.117    1525.723
  N     1143.009       1.660    1524.490
  C     1141.771       2.105    1524.492
  N     1141.052       1.664    1525.585
  O     1139.858       1.773    1520.168
  O     1138.001       0.211    1520.980
  H     1139.120       3.614    1528.055
  H     1140.439       1.067    1520.419
  H     1144.622      -1.051    1527.748
  H     1141.327       2.744    1523.740
  H     1139.517       1.554    1526.966
  H     1140.506       4.134    1526.332
  H     1143.227      -1.684    1529.522
  H     1139.695       4.000    1524.037
  H     1141.593      -1.144    1529.588
  H     1137.102       2.888    1525.243
  H     1136.868       1.695    1523.087
  H     1136.964       3.435    1522.821
  P     1138.720       6.388    1523.999
  C     1141.030       6.764    1525.169
  O     1139.715       7.249    1524.920
  O     1137.409       7.341    1523.888
  O     1139.237       5.972    1522.654
  H     1137.442       7.860    1523.048
  H     1141.634       7.568    1525.560
  H     1141.505       6.406    1524.216
  H     1140.982       5.939    1525.897
  H     1135.639       2.778    1519.103
  H     1135.635       1.846    1520.580
  H     1136.296       1.159    1519.116

 3  4  5  6  7  8  9  10  11  12  23  26  30  31 0
 6-311+G(2d,p)
 ****
 33  35  36  37  38 0
 6-311+G(2d,p)
 ****
 1  2  13  14  15  16  17  18  19  20  21  22  24  25 0
 3-21G
 ****
 27  28  29  32  34  39  40  41  42  43  44  45  46  47  48  49 0
 3-21G
 ****


