%nproc=1
%NoSave
%Mem=1900MB
#P OB98/GEN NMR

erre ene a

0 1
  C     -261.849      93.609      50.381
  O     -262.339      94.923      50.237
  H     -261.851      93.127      49.400
  H     -262.504      93.046      51.051
  H     -260.829      93.603      50.772
  P     -262.026      95.992      51.385
  C     -264.327      95.760      52.532
  O     -262.918      95.621      52.669
  C     -265.060      95.358      53.813
  O     -264.699      94.008      54.176
  C     -264.694      96.247      55.003
  O     -265.474      97.426      55.118
  C     -264.939      95.311      56.184
  O     -266.304      95.381      56.631
  C     -264.634      93.925      55.606
  N     -261.678      92.288      59.443
  C     -262.912      92.906      59.504
  N     -263.393      93.146      60.742
  N     -263.591      93.264      58.445
  C     -262.937      93.048      57.282
  C     -261.704      92.464      57.098
  C     -260.993      92.002      58.271
  O     -259.905      91.436      58.269
  N     -261.343      92.450      55.771
  C     -262.317      93.103      55.170
  N     -263.343      93.415      56.031
  O     -262.731      97.330      50.851
  O     -260.574      96.236      51.661
  H     -266.882      95.265      55.853
  H     -262.233      98.107      51.161
  H     -261.217      92.010      60.291
  H     -262.352      93.337      54.112
  H     -265.385      93.189      55.918
  H     -264.315      95.588      57.037
  H     -262.878      92.970      61.589
  H     -263.631      96.501      54.985
  H     -264.203      93.764      60.833
  H     -266.141      95.361      53.626
  H     -264.624      95.107      51.711
  H     -264.583      96.784      52.250
  P     -265.063      98.585      56.137
  C     -266.758      97.746      57.959
  O     -265.441      98.116      57.614
  O     -266.135      99.733      55.830
  O     -263.660      99.081      56.015
  H     -265.753     100.411      55.242
  H     -266.791      97.467      58.991
  H     -267.065      96.917      57.356
  H     -267.416      98.573      57.791

 6  7  8  9  10  11  12  13  14  15  26  29  33  34 0
 6-311+G(2d,p)
 ****
 36  38  39  40  41 0
 6-311+G(2d,p)
 ****
 1  2  3  4  5  16  17  18  19  20  21  22  23  24  25 0
 3-21G
 ****
 27  28  30  31  32  35  37  42  43  44  45  46  47 0
 3-21G
 ****
 48  49 0
 3-21G
 ****


