%nproc=1
%NoSave
%Mem=1900MB
#P OB98/GEN NMR

erre ene a

0 1
  C     -667.439     304.512    -189.975
  O     -667.473     303.936    -191.273
  P     -668.416     302.678    -191.596
  C     -666.491     300.978    -191.718
  O     -667.638     301.412    -190.990
  C     -666.364     299.456    -191.633
  O     -666.481     299.063    -190.246
  C     -667.438     298.653    -192.363
  O     -667.185     298.457    -193.753
  C     -667.342     297.318    -191.643
  O     -666.206     296.580    -192.137
  C     -667.099     297.752    -190.196
  N     -670.977     295.034    -188.251
  C     -669.882     294.672    -188.958
  N     -668.903     295.462    -189.458
  C     -669.113     296.744    -189.123
  C     -670.175     297.262    -188.405
  C     -671.141     296.345    -187.954
  N     -672.246     296.719    -187.211
  N     -670.057     298.635    -188.278
  C     -668.931     298.929    -188.895
  N     -668.322     297.818    -189.418
  O     -668.828     302.566    -193.028
  O     -669.652     302.847    -190.602
  H     -666.391     296.377    -193.075
  H     -670.401     302.283    -190.902
  H     -669.779     293.605    -189.153
  H     -668.522     299.926    -189.000
  H     -666.401     297.092    -189.666
  H     -668.220     296.688    -191.790
  H     -668.437     299.078    -192.202
  H     -665.362     299.173    -191.975
  H     -665.606     301.434    -191.266
  H     -672.812     295.979    -186.824
  H     -672.282     297.661    -186.857
  H     -666.563     301.310    -192.755
  P     -668.414     298.682    -194.765
  C     -669.178     296.207    -194.431
  O     -669.504     297.574    -194.383
  O     -668.030     298.745    -196.194
  O     -669.064     300.044    -194.217
  H     -669.482     299.986    -193.345
  H     -669.988     295.627    -193.983
  H     -668.260     296.007    -193.870
  H     -669.047     295.884    -195.471
  H     -666.753     305.333    -189.967
  H     -667.122     303.776    -189.266
  H     -668.416     304.861    -189.714

 3  4  5  6  7  8  9  10  11  12  22  25  29  30  31  32 0
 6-311+G(2d,p)
 ****
 33  36  37 0
 6-311+G(2d,p)
 ****
 1  2  13  14  15  16  17  18  19  20  21  23  24  26 0
 3-21G
 ****
 27  28  34  35  38  39  40  41  42  43  44  45  46  47  48 0
 3-21G
 ****


