%nproc=1
%NoSave
%Mem=1900MB
#P OB98/GEN NMR

erre ene a

0 1
  C       47.013     -25.520      21.601
  O       46.259     -25.710      22.781
  H       46.738     -24.559      21.159
  H       46.788     -26.313      20.885
  H       48.084     -25.512      21.825
  P       46.662     -26.943      23.722
  C       46.453     -25.259      25.692
  O       46.176     -26.563      25.206
  C       46.426     -25.255      27.220
  O       45.039     -25.181      27.658
  C       47.042     -26.507      27.858
  O       47.709     -26.118      29.063
  C       45.827     -27.345      28.211
  O       46.058     -28.287      29.250
  C       44.826     -26.252      28.598
  N       43.442     -26.719      28.557
  C       42.806     -26.941      29.775
  O       43.293     -26.693      30.876
  N       41.545     -27.475      29.693
  C       40.889     -27.821      28.549
  O       39.769     -28.316      28.544
  C       41.616     -27.572      27.296
  C       42.840     -27.043      27.358
  O       48.255     -26.820      23.812
  O       46.217     -28.285      23.247
  H       48.676     -27.325      23.092
  H       46.761     -28.896      28.942
  H       41.071     -27.643      30.566
  H       41.130     -27.844      26.369
  H       43.411     -26.866      26.453
  H       45.054     -25.862      29.596
  H       45.484     -27.894      27.327
  H       47.738     -27.046      27.208
  H       46.925     -24.347      27.579
  H       45.694     -24.564      25.321
  H       47.435     -24.939      25.326
  P       49.314     -26.084      29.039
  C       49.312     -24.051      30.691
  O       49.750     -25.372      30.407
  O       49.582     -24.983      27.913
  O       49.921     -27.421      28.778
  H       48.921     -24.270      27.912
  H       49.698     -23.743      31.640
  H       48.243     -24.028      30.717
  H       49.665     -23.387      29.930

 6  7  8  9  10  11  12  13  14  15  16  27  31  32  33  34  35 0
 6-311+G(2d,p)
 ****
 36  37 0
 6-311+G(2d,p)
 ****
 1  2  3  4  5  17  18  19  20  21  22  23  24  25 0
 3-21G
 ****
 26  28  29  30  38  39  40  41  42  43  44  45 0
 3-21G
 ****


