%nproc=1
%NoSave
%Mem=1900MB
#P OB98/GEN NMR

erre ene a

0 1
  C       -1.121       0.191      19.880
  O       -0.647       1.237      20.712
  P        0.741       1.942      20.316
  C        1.497       3.282      18.213
  O        0.658       2.271      18.748
  C        2.333       2.730      17.057
  O        3.316       1.809      17.596
  C        1.534       1.969      15.993
  O        2.195       2.186      14.740
  C        1.700       0.520      16.411
  O        1.467      -0.391      15.342
  C        3.133       0.539      16.933
  N        4.028      -4.419      17.365
  C        3.712      -3.671      16.245
  N        3.691      -4.333      15.069
  N        3.443      -2.392      16.276
  C        3.519      -1.864      17.521
  C        3.783      -2.506      18.708
  C        4.115      -3.911      18.654
  O        4.484      -4.593      19.607
  N        3.683      -1.653      19.774
  C        3.440      -0.480      19.224
  N        3.378      -0.549      17.858
  O        1.787       0.737      20.395
  O        1.140       3.108      21.164
  H        2.190      -0.281      14.692
  H        2.220       0.704      21.271
  H        4.243      -5.397      17.276
  H        3.306       0.446      19.759
  H        3.874       0.463      16.127
  H        0.992       0.285      17.214
  H        3.917      -5.310      14.967
  H        0.486       2.274      15.929
  H        3.495      -3.802      14.229
  H        2.881       3.563      16.601
  H        2.175       3.630      18.999
  H        0.887       4.129      17.884
  P        1.321       2.070      13.402
  C       -0.601       3.455      12.356
  O        0.101       3.097      13.529
  O        0.615       0.639      13.562
  O        2.105       2.134      12.132
  H        0.487       0.237      12.682
  H       -1.596       3.809      12.636
  H       -0.707       2.607      11.674
  H       -0.069       4.264      11.848
  H       -2.048      -0.179      20.265
  H       -0.402      -0.601      19.858
  H       -1.271       0.564      18.888

 3  4  5  6  7  8  9  10  11  12  23  26  30  31 0
 6-311+G(2d,p)
 ****
 33  35  36  37  38 0
 6-311+G(2d,p)
 ****
 1  2  13  14  15  16  17  18  19  20  21  22  24  25 0
 3-21G
 ****
 27  28  29  32  34  39  40  41  42  43  44  45  46  47  48  49 0
 3-21G
 ****


