%nproc=1
%NoSave
%Mem=1900MB
#P OB98/GEN NMR

erre ene a

0 1
  C      210.869     140.393     -29.983
  O      210.278     139.777     -28.856
  H      211.938     140.169     -30.019
  H      210.397     139.998     -30.887
  H      210.715     141.474     -29.947
  P      210.825     140.226     -27.415
  C      208.611     141.493     -26.919
  O      209.521     140.479     -26.514
  C      207.193     141.088     -26.536
  O      206.754     139.975     -27.348
  C      207.037     140.630     -25.090
  O      206.930     141.719     -24.191
  C      205.731     139.859     -25.181
  O      204.626     140.780     -25.221
  C      205.883     139.147     -26.532
  N      204.843     134.138     -26.399
  C      204.045     135.223     -26.491
  N      204.399     136.523     -26.515
  C      205.732     136.655     -26.433
  C      206.671     135.642     -26.327
  C      206.180     134.326     -26.318
  N      206.990     133.218     -26.210
  N      207.946     136.168     -26.228
  C      207.777     137.472     -26.308
  N      206.457     137.816     -26.423
  O      211.384     141.705     -27.669
  O      211.845     139.328     -26.801
  H      203.813     140.240     -25.205
  H      212.018     141.948     -26.968
  H      202.979     135.018     -26.551
  H      208.574     138.204     -26.288
  H      204.930     139.048     -27.064
  H      205.567     139.196     -24.330
  H      207.841     139.942     -24.797
  H      206.528     141.936     -26.749
  H      208.672     141.618     -28.004
  H      206.530     132.339     -26.026
  H      207.968     133.357     -25.997
  H      208.884     142.435     -26.433
  P      207.311     141.447     -22.655
  C      209.859     141.964     -22.695
  O      208.553     142.406     -22.336
  O      207.964     139.988     -22.695
  O      206.162     141.531     -21.704
  H      207.865     139.540     -21.835
  H      210.576     142.709     -22.419
  H      209.902     141.801     -23.752
  H      210.079     141.050     -22.184

 6  7  8  9  10  11  12  13  14  15  25  28  32  33  34  35 0
 6-311+G(2d,p)
 ****
 36  39  40 0
 6-311+G(2d,p)
 ****
 1  2  3  4  5  16  17  18  19  20  21  22  23  24 0
 3-21G
 ****
 26  27  29  30  31  37  38  41  42  43  44  45  46  47 0
 3-21G
 ****
 48 0
 3-21G
 ****


