%nproc=1
%NoSave
%Mem=1900MB
#P OB98/GEN NMR

erre ene a

0 1
  C      333.881      16.021    -228.298
  O      334.483      16.932    -229.198
  P      333.719      17.246    -230.572
  C      335.808      18.508    -231.486
  O      334.836      17.493    -231.695
  C      337.112      18.133    -232.196
  O      337.691      16.956    -231.585
  C      336.925      17.779    -233.667
  O      336.799      18.945    -234.465
  C      338.186      16.978    -233.953
  O      339.291      17.844    -234.245
  C      338.407      16.241    -232.616
  N      338.013      14.838    -232.679
  C      338.742      14.038    -233.559
  O      339.648      14.479    -234.267
  N      338.366      12.725    -233.626
  C      337.320      12.158    -232.962
  O      336.990      10.982    -233.109
  C      336.564      13.052    -232.072
  C      336.938      14.335    -231.973
  O      333.083      18.696    -230.336
  O      332.682      16.238    -230.949
  H      340.050      17.270    -234.472
  H      332.217      18.753    -230.785
  H      338.895      12.126    -234.239
  H      335.724      12.634    -231.526
  H      336.386      15.014    -231.337
  H      339.469      16.286    -232.336
  H      338.067      16.313    -234.814
  H      336.048      17.124    -233.788
  H      337.824      18.958    -232.084
  H      335.989      18.623    -230.411
  H      335.425      19.460    -231.870
  P      335.852      18.839    -235.761
  C      337.091      20.952    -236.673
  O      336.637      19.636    -236.908
  O      334.654      19.808    -235.330
  O      335.450      17.442    -236.077
  H      334.953      20.538    -234.764
  H      337.417      21.089    -235.640
  H      336.289      21.660    -236.900
  H      337.937      21.155    -237.340
  H      334.501      15.912    -227.433
  H      333.766      15.071    -228.776
  H      332.921      16.391    -228.005

 3  4  5  6  7  8  9  10  11  12  13  23  28  29  30  31  32 0
 6-311+G(2d,p)
 ****
 33  34 0
 6-311+G(2d,p)
 ****
 1  2  14  15  16  17  18  19  20  21  22  24  25  26 0
 3-21G
 ****
 27  35  36  37  38  39  40  41  42  43  44  45 0
 3-21G
 ****


