%nproc=1
%NoSave
%Mem=1900MB
#P OB98/GEN NMR

erre ene a

0 1
  C     1092.597    -561.006    -896.810
  O     1093.074    -559.821    -897.420
  P     1094.493    -559.917    -898.180
  C     1095.575    -559.866    -895.800
  O     1095.587    -559.362    -897.130
  C     1096.378    -559.012    -894.860
  O     1097.739    -558.941    -895.290
  C     1095.903    -557.556    -894.780
  O     1094.818    -557.398    -893.890
  C     1097.157    -556.886    -894.220
  O     1097.214    -557.097    -892.800
  C     1098.293    -557.653    -894.920
  N     1101.940    -554.612    -896.780
  C     1101.712    -555.044    -895.520
  N     1100.704    -555.851    -895.130
  C     1099.875    -556.172    -896.120
  C     1099.988    -555.746    -897.450
  C     1101.102    -554.928    -897.780
  N     1101.361    -554.503    -899.050
  N     1098.958    -556.279    -898.210
  C     1098.265    -556.979    -897.380
  N     1098.760    -556.976    -896.120
  O     1094.411    -558.733    -899.260
  O     1094.794    -561.234    -898.810
  H     1097.789    -556.395    -892.410
  H     1095.041    -558.913    -900.000
  H     1102.391    -554.727    -894.760
  H     1097.363    -557.554    -897.640
  H     1099.146    -557.820    -894.270
  H     1097.143    -555.804    -894.380
  H     1095.709    -557.136    -895.770
  H     1096.361    -559.473    -893.850
  H     1095.991    -560.889    -895.800
  H     1102.268    -554.079    -899.240
  H     1100.855    -554.925    -899.820
  H     1094.516    -559.949    -895.450
  P     1093.560    -556.523    -894.450
  C     1094.920    -554.294    -894.560
  O     1093.856    -555.024    -893.970
  O     1092.353    -556.993    -893.500
  O     1093.266    -556.727    -895.910
  H     1091.495    -556.864    -893.970
  H     1094.799    -553.236    -894.410
  H     1094.922    -554.466    -895.670
  H     1095.875    -554.649    -894.150
  H     1091.654    -560.812    -896.343
  H     1093.299    -561.335    -896.073
  H     1092.477    -561.766    -897.553

 3  4  5  6  7  8  9  10  11  12  22  25  29  30  31  32 0
 6-311+G(2d,p)
 ****
 33  36  37 0
 6-311+G(2d,p)
 ****
 1  2  13  14  15  16  17  18  19  20  21  23  24  26 0
 3-21G
 ****
 27  28  34  35  38  39  40  41  42  43  44  45  46  47  48 0
 3-21G
 ****


