%nproc=1
%NoSave
%Mem=1900MB
#P OB98/GEN NMR

erre ene a

0 1
  C      -51.786      43.094      88.871
  O      -51.778      43.314      90.272
  P      -53.084      43.843      91.047
  C      -54.082      41.455      91.073
  O      -54.248      42.805      90.672
  C      -55.104      41.090      92.153
  O      -56.417      41.533      91.717
  C      -55.198      39.589      92.455
  O      -55.470      39.452      93.854
  C      -56.394      39.153      91.630
  O      -56.976      37.947      92.105
  C      -57.293      40.389      91.750
  N      -58.292      40.461      90.688
  C      -59.540      39.885      90.929
  O      -59.779      39.315      91.993
  N      -60.502      39.966      89.952
  C      -60.214      40.497      88.803
  N      -61.217      40.608      87.890
  C      -58.874      41.020      88.468
  C      -57.982      40.989      89.455
  O      -53.421      45.273      90.801
  O      -52.805      43.489      92.579
  H      -56.293      37.249      92.089
  H      -52.274      44.183      93.045
  H      -58.675      41.428      87.487
  H      -56.982      41.373      89.309
  H      -57.791      40.400      92.727
  H      -56.083      38.990      90.592
  H      -54.276      39.052      92.213
  H      -54.857      41.649      93.065
  H      -62.155      40.399      88.215
  H      -53.076      41.338      91.485
  H      -61.162      41.280      87.133
  H      -54.178      40.797      90.203
  P      -54.962      38.125      94.603
  C      -53.115      39.406      95.903
  O      -53.432      38.349      95.022
  O      -54.825      37.095      93.378
  O      -55.872      37.559      95.643
  H      -54.918      36.185      93.717
  H      -52.035      39.402      96.081
  H      -53.625      39.271      96.862
  H      -53.394      40.366      95.465
  H      -50.824      42.745      88.559
  H      -52.014      44.010      88.367
  H      -52.527      42.360      88.629

 3  4  5  6  7  8  9  10  11  12  13  23  27  28  29  30  32 0
 6-311+G(2d,p)
 ****
 34  35 0
 6-311+G(2d,p)
 ****
 1  2  14  15  16  17  18  19  20  21  22  24  25  26 0
 3-21G
 ****
 31  33  36  37  38  39  40  41  42  43  44  45  46 0
 3-21G
 ****


