%nproc=1
%NoSave
%Mem=1900MB
#P OB98/GEN NMR

erre ene a

0 1
  C       34.480    -173.310      90.709
  O       33.906    -173.893      89.553
  H       35.407    -173.843      90.947
  H       33.793    -173.399      91.556
  H       34.710    -172.258      90.524
  P       32.499    -173.286      89.077
  C       33.084    -171.694      87.122
  O       32.809    -171.820      88.507
  C       32.159    -170.659      86.484
  O       30.776    -170.957      86.788
  C       32.405    -169.227      86.938
  O       33.460    -168.635      86.196
  C       31.054    -168.588      86.650
  O       30.921    -168.258      85.253
  C       30.080    -169.710      87.037
  N       26.768    -167.603      90.223
  C       27.002    -167.351      88.885
  N       26.273    -166.369      88.315
  N       27.897    -167.986      88.166
  C       28.595    -168.902      88.882
  C       28.451    -169.249      90.207
  C       27.424    -168.571      90.969
  O       27.110    -168.809      92.137
  N       29.337    -170.238      90.564
  C       30.031    -170.467      89.465
  N       29.618    -169.676      88.418
  O       31.732    -172.996      90.457
  O       31.687    -174.171      88.190
  H       31.643    -167.667      84.995
  H       30.786    -173.202      90.338
  H       26.044    -167.106      90.713
  H       30.829    -171.192      89.371
  H       29.182    -169.707      86.411
  H       30.929    -167.651      87.201
  H       25.803    -165.662      88.862
  H       32.605    -169.184      88.015
  H       26.501    -166.131      87.356
  H       32.274    -170.742      85.395
  H       32.932    -172.662      86.638
  H       34.128    -171.384      86.987
  P       34.058    -167.240      86.711
  C       36.392    -168.090      87.462
  O       35.134    -167.552      87.858
  O       32.828    -166.603      87.516
  O       34.519    -166.325      85.626
  H       32.428    -165.883      86.996
  H       37.002    -168.245      88.327
  H       36.880    -167.406      86.800
  H       36.239    -169.023      86.961

 6  7  8  9  10  11  12  13  14  15  26  29  33  34 0
 6-311+G(2d,p)
 ****
 36  38  39  40  41 0
 6-311+G(2d,p)
 ****
 1  2  3  4  5  16  17  18  19  20  21  22  23  24  25 0
 3-21G
 ****
 27  28  30  31  32  35  37  42  43  44  45  46  47 0
 3-21G
 ****
 48  49 0
 3-21G
 ****


