%nproc=1
%NoSave
%Mem=1900MB
#P OB98/GEN NMR

erre ene a

0 1
  C      263.048     249.862     411.184
  O      262.294     248.901     411.895
  H      264.102     249.746     411.449
  H      262.727     250.873     411.450
  H      262.934     249.705     410.108
  P      260.706     248.927     411.672
  C      260.629     246.760     410.281
  O      260.300     247.380     411.518
  C      261.013     245.294     410.502
  O      262.319     245.247     411.129
  C      260.034     244.540     411.407
  O      259.879     243.206     410.924
  C      260.740     244.514     412.753
  O      260.323     243.419     413.564
  C      262.210     244.462     412.329
  N      264.248     243.508     416.911
  C      263.524     242.742     416.069
  N      263.031     243.072     414.853
  C      263.397     244.325     414.516
  C      264.127     245.221     415.274
  C      264.557     244.769     416.534
  N      265.272     245.554     417.410
  N      264.257     246.422     414.601
  C      263.626     246.248     413.455
  N      263.076     244.997     413.365
  O      260.217     249.827     410.587
  O      260.176     249.276     413.142
  H      260.608     243.592     414.485
  H      260.650     248.761     413.822
  H      263.303     241.735     416.413
  H      263.532     246.990     412.669
  H      262.546     243.441     412.115
  H      260.528     245.440     413.297
  H      259.059     245.029     411.471
  H      261.111     244.804     409.526
  H      261.466     247.286     409.807
  H      265.555     245.149     418.288
  H      265.529     246.492     417.140
  H      259.756     246.828     409.625
  P      258.700     242.306     411.540
  C      257.209     242.051     409.447
  O      258.083     241.399     410.364
  O      257.705     243.021     412.389
  O      259.514     241.226     412.407
  H      259.013     241.033     413.221
  H      256.867     241.347     408.718
  H      257.733     242.845     408.958
  H      256.370     242.451     409.977

 6  7  8  9  10  11  12  13  14  15  25  28  32  33  34  35 0
 6-311+G(2d,p)
 ****
 36  39  40 0
 6-311+G(2d,p)
 ****
 1  2  3  4  5  16  17  18  19  20  21  22  23  24 0
 3-21G
 ****
 26  27  29  30  31  37  38  41  42  43  44  45  46  47 0
 3-21G
 ****
 48 0
 3-21G
 ****


