%nproc=1
%NoSave
%Mem=1900MB
#P OB98/GEN NMR

erre ene a

0 1
  C      132.758     104.735    -100.215
  O      133.168     105.642    -101.240
  P      132.579     107.134    -101.293
  C      130.752     106.492    -102.968
  O      131.022     107.070    -101.695
  C      129.717     107.275    -103.785
  O      128.410     107.219    -103.161
  C      130.051     108.757    -103.996
  O      129.532     109.096    -105.286
  C      129.248     109.426    -102.896
  O      129.049     110.816    -103.134
  C      127.978     108.567    -102.896
  N      127.242     108.664    -101.638
  C      126.556     109.857    -101.398
  O      126.634     110.791    -102.199
  N      125.839     109.984    -100.233
  C      125.885     109.041     -99.344
  N      125.173     109.235     -98.200
  C      126.666     107.798     -99.519
  C      127.304     107.676    -100.684
  O      133.387     108.099    -102.100
  O      132.544     107.585     -99.753
  H      128.381     110.912    -103.847
  H      132.665     108.552     -99.699
  H      126.696     107.052     -98.740
  H      127.899     106.802    -100.909
  H      127.307     108.867    -103.713
  H      129.774     109.327    -101.941
  H      131.120     108.974    -103.933
  H      129.622     106.775    -104.756
  H      124.671     110.110     -98.109
  H      130.386     105.471    -102.811
  H      125.232     108.619     -97.401
  H      131.689     106.415    -103.530
  P      130.360     108.832    -106.630
  C      131.564     111.086    -106.763
  O      131.702     109.700    -106.524
  O      129.588     109.033    -107.895
  O      130.885     107.322    -106.504
  H      131.148     106.998    -107.385
  H      132.482     111.592    -106.458
  H      130.724     111.497    -106.190
  H      131.397     111.264    -107.829
  H      133.257     103.798    -100.348
  H      131.700     104.587    -100.272
  H      133.011     105.141     -99.258

 3  4  5  6  7  8  9  10  11  12  13  23  27  28  29  30  32 0
 6-311+G(2d,p)
 ****
 34  35 0
 6-311+G(2d,p)
 ****
 1  2  14  15  16  17  18  19  20  21  22  24  25  26 0
 3-21G
 ****
 31  33  36  37  38  39  40  41  42  43  44  45  46 0
 3-21G
 ****


