%nproc=1
%NoSave
%Mem=1900MB
#P OB98/GEN NMR

erre ene a

0 1
  C      -45.237    -156.220    -236.197
  O      -46.113    -155.274    -236.779
  H      -45.118    -157.058    -236.890
  H      -45.639    -156.597    -235.254
  H      -44.256    -155.766    -236.029
  P      -46.649    -154.074    -235.855
  C      -48.903    -154.455    -237.059
  O      -47.945    -153.497    -236.612
  C      -50.312    -153.856    -237.071
  O      -50.749    -153.589    -235.725
  C      -50.403    -152.521    -237.793
  O      -50.228    -152.607    -239.191
  C      -51.689    -151.932    -237.230
  O      -52.859    -152.356    -237.924
  C      -51.697    -152.504    -235.791
  N      -51.423    -151.477    -234.793
  C      -52.525    -150.767    -234.335
  O      -53.672    -150.953    -234.745
  N      -52.267    -149.792    -233.412
  C      -51.033    -149.435    -232.953
  O      -50.862    -148.521    -232.154
  C      -49.901    -150.204    -233.492
  C      -50.142    -151.177    -234.374
  O      -45.639    -153.025    -235.500
  O      -47.274    -154.821    -234.587
  H      -52.717    -152.159    -238.871
  H      -47.397    -154.198    -233.832
  H      -53.057    -149.272    -233.063
  H      -48.906    -149.947    -233.151
  H      -49.323    -151.759    -234.789
  H      -52.679    -152.937    -235.564
  H      -51.676    -150.840    -237.262
  H      -49.589    -151.882    -237.430
  H      -50.995    -154.592    -237.511
  H      -48.878    -155.300    -236.364
  H      -48.629    -154.810    -238.058
  P      -48.840    -152.316    -239.923
  C      -50.000    -151.004    -241.842
  O      -49.135    -152.077    -241.486
  O      -47.682    -153.178    -239.537
  O      -48.519    -150.820    -239.407
  H      -47.549    -150.744    -239.314
  H      -50.103    -150.967    -242.906
  H      -49.587    -150.081    -241.491
  H      -50.961    -151.157    -241.396

 6  7  8  9  10  11  12  13  14  15  16  26  31  32  33  34  35 0
 6-311+G(2d,p)
 ****
 36  37 0
 6-311+G(2d,p)
 ****
 1  2  3  4  5  17  18  19  20  21  22  23  24  25 0
 3-21G
 ****
 27  28  29  30  38  39  40  41  42  43  44  45 0
 3-21G
 ****


