%nproc=1
%NoSave
%Mem=1900MB
#P OB98/GEN NMR

erre ene a

0 1
  C       -9.233     -88.792     145.766
  O       -8.628     -87.739     146.502
  P       -8.502     -86.306     145.790
  C       -5.916     -86.219     145.795
  O       -7.097     -86.308     145.010
  C       -5.839     -84.875     146.511
  O       -4.717     -84.897     147.435
  C       -5.642     -83.671     145.574
  O       -6.500     -82.600     145.994
  C       -4.209     -83.245     145.841
  O       -3.998     -81.868     145.548
  C       -4.081     -83.607     147.319
  N       -0.477     -80.980     149.693
  C       -1.827     -80.718     149.574
  N       -2.266     -79.560     150.117
  N       -2.674     -81.514     148.974
  C       -2.100     -82.649     148.506
  C       -0.780     -83.028     148.569
  C        0.156     -82.108     149.183
  O        1.376     -82.242     149.239
  N       -0.585     -84.258     147.997
  C       -1.783     -84.623     147.584
  N       -2.729     -83.659     147.826
  O       -8.252     -85.318     147.022
  O       -9.686     -85.888     144.990
  H       -3.122     -81.631     145.907
  H       -8.930     -84.614     147.022
  H        0.133     -80.326     150.148
  H       -2.006     -85.556     147.079
  H       -4.643     -82.895     147.940
  H       -3.534     -83.843     145.218
  H       -1.674     -78.920     150.623
  H       -5.819     -83.892     144.516
  H       -3.255     -79.360     150.059
  H       -6.747     -84.748     147.116
  H       -5.041     -86.330     145.144
  H       -5.914     -87.034     146.527
  P       -6.823     -81.480     144.889
  C       -5.679     -79.603     146.289
  O       -5.712     -80.345     145.083
  O       -8.165     -80.800     145.430
  O       -6.972     -82.022     143.505
  H       -8.662     -80.394     144.695
  H       -6.353     -80.020     147.046
  H       -5.976     -78.571     146.082
  H       -4.659     -79.608     146.683
  H       -9.248     -89.681     146.362
  H       -8.672     -88.971     144.873
  H      -10.235     -88.518     145.509

 3  4  5  6  7  8  9  10  11  12  23  26  30  31  33  0
 6-311+G(2d,p)
 ****
 35  36  37  38 0
 6-311+G(2d,p)
 ****
 1  2  13  14  15  16  17  18  19  20  21  22  24  25  27  28  29 0
 3-21G
 ****
 32  34  39  40  41  42  43  44  45  46  47  48  49 0
 3-21G
 ****


