%nproc=1
%NoSave
%Mem=1900MB
#P OB98/GEN NMR

erre ene a

0 1
  C      -37.482     -17.824     -10.108
  O      -37.637     -16.422     -10.081
  H      -38.425     -18.288      -9.808
  H      -36.705     -18.128      -9.403
  H      -37.225     -18.164     -11.115
  P      -36.423     -15.533     -10.637
  C      -33.917     -15.329      -9.995
  O      -35.228     -15.669      -9.573
  C      -32.881     -16.157      -9.233
  O      -32.749     -15.621      -7.891
  C      -33.245     -17.638      -9.115
  O      -32.051     -18.415      -9.244
  C      -33.780     -17.765      -7.700
  O      -33.652     -19.087      -7.179
  C      -32.958     -16.701      -6.961
  N      -33.634     -16.249      -5.749
  C      -32.907     -16.331      -4.558
  O      -31.758     -16.777      -4.562
  N      -33.514     -15.965      -3.384
  C      -34.765     -15.628      -3.386
  N      -35.319     -15.303      -2.187
  C      -35.591     -15.592      -4.609
  C      -34.965     -15.903      -5.744
  O      -36.934     -14.033     -10.425
  O      -36.027     -15.805     -12.050
  H      -34.280     -19.670      -7.659
  H      -36.581     -13.438     -11.113
  H      -36.637     -15.330      -4.557
  H      -35.491     -15.912      -6.691
  H      -31.971     -17.097      -6.687
  H      -34.844     -17.500      -7.685
  H      -33.974     -17.964      -9.862
  H      -31.908     -16.032      -9.724
  H      -34.725     -15.358      -1.368
  H      -33.741     -14.268      -9.791
  H      -36.293     -15.071      -2.063
  H      -33.825     -15.501     -11.072
  P      -31.891     -19.272     -10.588
  C      -32.253     -21.741     -11.309
  O      -32.441     -20.751     -10.306
  O      -30.309     -19.472     -10.713
  O      -32.460     -18.604     -11.796
  H      -29.961     -18.929     -11.444
  H      -32.670     -22.669     -10.977
  H      -31.207     -21.867     -11.494
  H      -32.740     -21.433     -12.210

 6  7  8  9  10  11  12  13  14  15  16  26  30  31  32  33  35 0
 6-311+G(2d,p)
 ****
 37  38 0
 6-311+G(2d,p)
 ****
 1  2  3  4  5  17  18  19  20  21  22  23  24  25 0
 3-21G
 ****
 27  28  29  34  36  39  40  41  42  43  44  45  46 0
 3-21G
 ****


