%nproc=1
%NoSave
%Mem=1900MB
#P OB98/GEN NMR

erre ene a

0 1
  C     -244.156       9.540     271.651
  O     -242.882       9.758     272.219
  H     -244.904      10.050     272.262
  H     -244.381       8.471     271.644
  H     -244.208       9.936     270.634
  P     -241.579       9.371     271.372
  C     -240.718      11.802     271.392
  O     -240.454      10.453     271.747
  C     -240.165      12.765     272.447
  O     -240.919      12.588     273.682
  C     -238.683      12.540     272.778
  O     -238.128      13.811     273.142
  C     -238.771      11.638     273.993
  O     -237.558      11.618     274.712
  C     -239.975      12.247     274.715
  N     -240.550      11.343     275.710
  C     -239.977      11.366     276.973
  O     -239.014      12.077     277.266
  N     -240.517      10.510     277.895
  C     -241.511       9.607     277.655
  O     -241.934       8.840     278.510
  C     -242.048       9.595     276.283
  C     -241.554      10.451     275.389
  O     -241.792       9.177     269.908
  O     -241.031       8.041     272.076
  H     -237.443      12.456     275.209
  H     -240.579       7.477     271.421
  H     -240.120      10.523     278.820
  H     -242.831       8.884     276.061
  H     -241.930      10.469     274.371
  H     -239.688      13.177     275.230
  H     -238.989      10.607     273.693
  H     -238.119      12.097     271.954
  H     -240.343      13.792     272.111
  H     -241.803      11.923     271.310
  H     -240.265      12.018     270.419
  P     -236.714      14.318     272.576
  C     -237.551      16.755     272.560
  O     -236.523      15.862     272.974
  O     -236.495      14.030     271.126
  O     -235.624      13.565     273.475
  H     -234.802      13.449     272.963
  H     -237.312      17.747     272.881
  H     -238.481      16.454     272.994
  H     -237.632      16.735     271.493

 6  7  8  9  10  11  12  13  14  15  16  26  31  32  33  34  35 0
 6-311+G(2d,p)
 ****
 36  37 0
 6-311+G(2d,p)
 ****
 1  2  3  4  5  17  18  19  20  21  22  23  24  25 0
 3-21G
 ****
 27  28  29  30  38  39  40  41  42  43  44  45 0
 3-21G
 ****


