%nproc=1
%NoSave
%Mem=1900MB
#P OB98/GEN NMR

erre ene a

0 1
  C      212.488    -109.268    -309.073
  O      213.598    -110.140    -309.047
  H      212.652    -108.517    -309.849
  H      212.397    -108.762    -308.108
  H      211.566    -109.808    -309.294
  P      213.470    -111.529    -308.264
  C      214.051    -110.836    -305.844
  O      213.023    -111.187    -306.761
  C      213.758    -111.394    -304.447
  O      213.905    -112.833    -304.459
  C      214.771    -110.855    -303.436
  O      214.229    -110.777    -302.120
  C      215.870    -111.906    -303.459
  O      216.674    -111.901    -302.282
  C      215.046    -113.178    -303.652
  N      218.331    -117.024    -303.032
  C      217.930    -116.064    -302.125
  N      218.494    -116.124    -300.899
  N      217.064    -115.123    -302.402
  C      216.640    -115.137    -303.689
  C      216.988    -116.022    -304.686
  C      217.914    -117.084    -304.355
  O      218.320    -117.951    -305.128
  N      216.365    -115.711    -305.871
  C      215.652    -114.638    -305.592
  N      215.775    -114.259    -304.278
  O      214.989    -112.002    -308.075
  O      212.649    -112.585    -308.943
  H      217.332    -112.614    -302.374
  H      215.035    -112.967    -307.974
  H      218.987    -117.733    -302.762
  H      215.030    -114.107    -306.300
  H      214.674    -113.548    -302.685
  H      216.528    -111.693    -304.304
  H      219.287    -116.715    -300.698
  H      215.152    -109.871    -303.719
  H      218.441    -115.275    -300.329
  H      212.722    -111.183    -304.164
  H      214.094    -109.742    -305.811
  H      215.019    -111.191    -306.207
  P      213.720    -109.342    -301.611
  C      216.035    -108.233    -301.055
  O      214.892    -108.282    -301.891
  O      213.701    -109.493    -300.020
  O      212.389    -108.949    -302.158
  H      212.783    -109.580    -299.703
  H      216.697    -107.467    -301.401
  H      216.537    -109.178    -301.081
  H      215.734    -108.017    -300.051

 6  7  8  9  10  11  12  13  14  15  26  29  33  34 0
 6-311+G(2d,p)
 ****
 36  38  39  40  41 0
 6-311+G(2d,p)
 ****
 1  2  3  4  5  16  17  18  19  20  21  22  23  24  25 0
 3-21G
 ****
 27  28  30  31  32  35  37  42  43  44  45  46  47 0
 3-21G
 ****
 48  49 0
 3-21G
 ****


