%nproc=1
%NoSave
%Mem=1900MB
#P OB98/GEN NMR

erre ene a

0 1
  C      148.418    -410.743     -70.015
  O      147.668    -411.784     -69.427
  H      148.335    -409.851     -69.387
  H      148.033    -410.512     -71.013
  H      149.472    -411.030     -70.082
  P      147.574    -413.158     -70.258
  C      149.449    -414.155     -68.742
  O      149.026    -413.820     -70.055
  C      150.920    -414.565     -68.759
  O      151.761    -413.446     -69.134
  C      151.464    -415.039     -67.413
  O      151.075    -416.363     -67.087
  C      152.955    -414.937     -67.680
  O      153.370    -416.024     -68.528
  C      153.024    -413.586     -68.427
  N      153.240    -412.448     -67.532
  C      154.502    -411.837     -67.586
  O      155.370    -412.251     -68.357
  N      154.761    -410.778     -66.741
  C      153.843    -410.359     -65.931
  N      154.159    -409.311     -65.116
  C      152.497    -410.963     -65.846
  C      152.269    -411.990     -66.665
  O      147.621    -412.671     -71.783
  O      146.423    -414.046     -69.923
  H      152.988    -416.837     -68.149
  H      147.713    -413.452     -72.385
  H      151.767    -410.586     -65.145
  H      151.302    -412.484     -66.662
  H      153.822    -413.598     -69.181
  H      153.559    -414.989     -66.775
  H      151.197    -414.347     -66.606
  H      151.046    -415.340     -69.533
  H      155.106    -408.958     -65.155
  H      148.831    -414.982     -68.383
  H      153.569    -409.008     -64.351
  H      149.323    -413.295     -68.076
  P      150.133    -416.563     -65.799
  C      148.766    -418.438     -66.983
  O      148.744    -417.175     -66.326
  O      149.745    -415.065     -65.403
  O      150.767    -417.299     -64.662
  H      149.650    -414.970     -64.432
  H      147.772    -418.707     -67.272
  H      149.157    -419.179     -66.318
  H      149.386    -418.377     -67.853

 6  7  8  9  10  11  12  13  14  15  16  26  30  31  32  33  35 0
 6-311+G(2d,p)
 ****
 37  38 0
 6-311+G(2d,p)
 ****
 1  2  3  4  5  17  18  19  20  21  22  23  24  25 0
 3-21G
 ****
 27  28  29  34  36  39  40  41  42  43  44  45  46 0
 3-21G
 ****


