%nproc=1
%NoSave
%Mem=1900MB
#P OB98/GEN NMR

erre ene a

0 1
  C     -358.473     417.975     254.918
  O     -358.534     417.048     253.862
  P     -359.894     416.230     253.592
  C     -359.392     416.087     251.072
  O     -359.686     415.358     252.247
  C     -359.210     415.135     249.890
  O     -360.277     414.166     249.845
  C     -359.228     415.826     248.521
  O     -357.996     416.481     248.281
  C     -359.506     414.646     247.597
  O     -358.296     413.912     247.324
  C     -360.462     413.800     248.461
  N     -364.403     411.634     246.037
  C     -363.082     411.314     246.096
  N     -362.090     411.958     246.732
  C     -362.566     413.068     247.342
  C     -363.869     413.539     247.321
  C     -364.830     412.757     246.657
  N     -366.167     413.059     246.643
  N     -363.941     414.746     248.025
  C     -362.719     414.974     248.436
  N     -361.862     413.971     248.102
  O     -361.144     417.053     253.630
  O     -359.904     415.118     254.745
  H     -357.628     414.563     247.069
  H     -360.702     415.241     255.299
  H     -362.806     410.402     245.578
  H     -362.403     415.852     248.997
  H     -360.232     412.719     248.378
  H     -359.937     414.954     246.649
  H     -360.069     416.534     248.480
  H     -358.261     414.594     250.030
  H     -358.479     416.656     251.220
  H     -366.774     412.343     246.259
  H     -366.532     413.694     247.334
  H     -360.223     416.799     250.854
  P     -358.002     418.051     247.870
  C     -355.618     418.114     248.836
  O     -356.459     418.505     247.772
  O     -358.882     418.933     248.710
  O     -358.483     418.025     246.338
  H     -358.973     418.843     246.155
  H     -355.796     418.778     249.695
  H     -354.593     418.211     248.520
  H     -355.819     417.070     249.140
  H     -357.500     418.420     254.946
  H     -358.663     417.474     255.844
  H     -359.209     418.737     254.767

 3  4  5  6  7  8  9  10  11  12  22  25  29  30  31  32 0
 6-311+G(2d,p)
 ****
 33  36  37 0
 6-311+G(2d,p)
 ****
 1  2  13  14  15  16  17  18  19  20  21  23  24  26 0
 3-21G
 ****
 27  28  34  35  38  39  40  41  42  43  44  45  46  47  48 0
 3-21G
 ****


