%nproc=1
%NoSave
%Mem=1900MB
#P OB98/GEN NMR

erre ene a

0 1
  C      -36.204      20.805     443.811
  O      -35.186      20.474     444.738
  P      -35.472      20.507     446.314
  C      -34.768      22.993     446.313
  O      -35.781      22.045     446.658
  C      -35.136      24.389     446.804
  O      -36.318      24.875     446.116
  C      -35.462      24.467     448.285
  O      -34.280      24.440     449.059
  C      -36.239      25.779     448.354
  O      -35.347      26.902     448.416
  C      -37.007      25.767     447.012
  N      -38.405      25.383     447.182
  C      -39.316      26.434     447.340
  O      -38.918      27.598     447.363
  N      -40.650      26.138     447.518
  C      -41.030      24.895     447.554
  N      -42.363      24.664     447.739
  C      -40.104      23.759     447.419
  C      -38.815      24.071     447.243
  O      -34.437      19.856     447.169
  O      -36.919      19.815     446.435
  H      -34.706      26.784     447.682
  H      -36.866      18.840     446.299
  H      -40.466      22.741     447.472
  H      -38.063      23.299     447.141
  H      -36.975      26.761     446.545
  H      -36.886      25.832     449.235
  H      -36.129      23.635     448.562
  H      -34.298      25.066     446.567
  H      -42.958      25.472     447.859
  H      -34.668      23.002     445.218
  H      -42.760      23.741     447.820
  H      -33.816      22.669     446.743
  P      -34.362      24.180     450.639
  C      -34.041      26.668     451.205
  O      -34.884      25.530     451.332
  O      -33.142      23.581     451.255
  O      -35.622      23.195     450.794
  H      -35.393      22.481     451.424
  H      -34.627      27.563     451.410
  H      -33.621      26.733     450.192
  H      -33.228      26.604     451.930
  H      -35.820      20.724     442.816
  H      -36.533      21.808     443.986
  H      -37.028      20.133     443.931

 3  4  5  6  7  8  9  10  11  12  13  23  27  28  29  30  32 0
 6-311+G(2d,p)
 ****
 34  35 0
 6-311+G(2d,p)
 ****
 1  2  14  15  16  17  18  19  20  21  22  24  25  26 0
 3-21G
 ****
 31  33  36  37  38  39  40  41  42  43  44  45  46 0
 3-21G
 ****


