%nproc=1
%NoSave
%Mem=1900MB
#P OB98/GEN NMR

erre ene a

0 1
  C     -298.311     619.993    -384.282
  O     -297.457     618.922    -384.635
  H     -298.724     620.423    -385.194
  H     -297.759     620.767    -383.745
  H     -299.141     619.628    -383.665
  P     -296.688     618.139    -383.465
  C     -296.870     615.872    -384.685
  O     -295.999     616.863    -384.162
  C     -296.262     615.250    -385.947
  O     -296.196     616.228    -387.000
  C     -294.844     614.721    -385.761
  O     -294.864     613.433    -385.161
  C     -294.367     614.680    -387.205
  O     -294.943     613.541    -387.874
  C     -294.977     615.987    -387.761
  N     -293.949     620.553    -389.731
  C     -294.819     619.578    -390.171
  N     -295.488     619.841    -391.310
  N     -295.017     618.439    -389.554
  C     -294.222     618.278    -388.463
  C     -293.308     619.164    -387.941
  C     -293.152     620.446    -388.589
  O     -292.415     621.354    -388.224
  N     -292.626     618.617    -386.881
  C     -293.173     617.416    -386.726
  N     -294.137     617.161    -387.674
  O     -297.499     617.806    -382.249
  O     -295.441     619.081    -383.116
  H     -294.434     613.409    -388.703
  H     -295.657     619.702    -382.398
  H     -293.830     621.405    -390.255
  H     -292.905     616.712    -385.964
  H     -295.271     615.880    -388.818
  H     -293.285     614.599    -387.289
  H     -295.277     620.634    -391.907
  H     -294.216     615.422    -385.199
  H     -296.100     619.111    -391.680
  H     -296.942     614.453    -386.285
  H     -297.823     616.359    -384.926
  H     -297.054     615.084    -383.948
  P     -293.766     612.988    -384.074
  C     -295.235     610.875    -383.850
  O     -293.920     611.398    -383.937
  O     -293.817     613.741    -382.792
  O     -292.373     613.119    -384.849
  H     -291.998     614.033    -384.828
  H     -295.190     609.809    -383.763
  H     -295.783     611.138    -384.731
  H     -295.725     611.283    -382.990

 6  7  8  9  10  11  12  13  14  15  26  29  33  34 0
 6-311+G(2d,p)
 ****
 36  38  39  40  41 0
 6-311+G(2d,p)
 ****
 1  2  3  4  5  16  17  18  19  20  21  22  23  24  25 0
 3-21G
 ****
 27  28  30  31  32  35  37  42  43  44  45  46  47 0
 3-21G
 ****
 48  49 0
 3-21G
 ****


