%nproc=1
%NoSave
%Mem=1900MB
#P OB98/GEN NMR

erre ene a

0 1
  C     1484.744      19.381     737.605
  O     1485.817      18.931     738.450
  P     1487.286      18.981     737.817
  C     1487.168      17.042     736.115
  O     1487.215      18.440     736.313
  C     1488.146      16.573     735.015
  O     1488.307      15.128     735.041
  C     1487.659      16.942     733.586
  O     1488.818      17.219     732.791
  C     1487.026      15.649     733.096
  O     1486.929      15.621     731.649
  C     1487.975      14.623     733.714
  N     1486.714      10.431     731.041
  C     1487.308      11.622     730.696
  N     1487.598      12.688     731.463
  C     1487.235      12.473     732.749
  C     1486.607      11.319     733.263
  C     1486.349      10.303     732.331
  N     1485.723       9.123     732.706
  N     1486.356      11.484     734.616
  C     1486.823      12.681     734.906
  N     1487.371      13.288     733.803
  O     1488.074      17.814     738.583
  O     1488.005      20.291     737.961
  H     1486.649      14.703     731.413
  H     1488.693      18.209     739.236
  H     1487.597      11.686     729.636
  H     1486.759      13.165     735.876
  H     1488.910      14.507     733.136
  H     1486.027      15.550     733.519
  H     1486.981      17.786     733.539
  H     1489.107      17.016     735.194
  H     1486.141      16.721     735.815
  H     1485.556       8.441     731.988
  H     1485.396       9.002     733.641
  H     1487.369      16.504     737.068
  P     1488.900      18.640     732.064
  C     1488.339      17.783     729.670
  O     1487.911      18.513     730.793
  O     1490.325      18.668     731.402
  O     1488.666      19.815     732.952
  H     1490.609      19.579     731.277
  H     1487.496      17.190     729.293
  H     1489.159      17.092     729.895
  H     1488.649      18.477     728.876
  H     1483.817      19.302     738.133
  H     1484.706      18.775     736.724
  H     1484.911      20.401     737.329

 3  4  5  6  7  8  9  10  11  12  22  25  29  30  31  32 0
 6-311+G(2d,p)
 ****
 33  36  37 0
 6-311+G(2d,p)
 ****
 1  2  13  14  15  16  17  18  19  20  21  23  24  26 0
 3-21G
 ****
 27  28  34  35  38  39  40  41  42  43  44  45  46  47  48 0
 3-21G
 ****


