%nproc=1
%NoSave
%Mem=1900MB
#P OB98/GEN NMR

erre ene a

0 1
  C     1492.567    -898.950     493.787
  O     1491.803    -898.270     494.769
  H     1492.494    -898.400     492.846
  H     1492.164    -899.960     493.632
  H     1493.615    -899.030     494.081
  P     1492.086    -898.580     496.313
  C     1491.654    -896.100     496.825
  O     1491.369    -897.450     497.191
  C     1490.453    -895.190     497.114
  O     1490.014    -895.380     498.482
  C     1490.819    -893.680     496.989
  O     1490.699    -893.160     495.676
  C     1489.799    -893.050     497.934
  O     1488.579    -892.740     497.256
  C     1489.593    -894.110     498.995
  N     1489.629    -891.670     503.484
  C     1488.735    -891.500     502.423
  N     1487.794    -890.560     502.575
  N     1488.840    -892.220     501.337
  C     1489.893    -893.050     501.295
  C     1490.817    -893.270     502.275
  C     1490.713    -892.550     503.520
  O     1491.427    -892.650     504.511
  N     1491.788    -894.160     501.878
  C     1491.496    -894.410     500.626
  N     1490.293    -893.820     500.249
  O     1493.635    -898.240     496.482
  O     1491.795    -900.000     496.743
  H     1488.812    -892.420     496.371
  H     1494.016    -898.820     497.175
  H     1489.486    -891.120     504.335
  H     1492.058    -895.040     499.950
  H     1488.523    -894.210     499.259
  H     1490.191    -892.110     498.332
  H     1487.737    -889.940     503.373
  H     1491.833    -893.490     497.367
  H     1487.263    -890.290     501.752
  H     1489.609    -895.430     496.459
  H     1491.859    -896.110     495.751
  H     1492.541    -895.730     497.335
  P     1491.911    -892.440     494.963
  C     1490.781    -892.840     492.618
  O     1491.451    -891.950     493.500
  O     1492.934    -893.640     494.615
  O     1492.582    -891.350     495.756
  H     1493.631    -893.690     495.297
  H     1490.559    -892.334     491.702
  H     1489.871    -893.173     493.071
  H     1491.409    -893.683     492.417

 6  7  8  9  10  11  12  13  14  15  26  29  33  34 0
 6-311+G(2d,p)
 ****
 36  38  39  40  41 0
 6-311+G(2d,p)
 ****
 1  2  3  4  5  16  17  18  19  20  21  22  23  24  25 0
 3-21G
 ****
 27  28  30  31  32  35  37  42  43  44  45  46  47 0
 3-21G
 ****
 48  49 0
 3-21G
 ****


