%nproc=1
%NoSave
%Mem=1900MB
#P OB98/GEN NMR

erre ene a

0 1
  C      -35.442     395.055    -483.455
  O      -34.125     394.858    -483.946
  P      -33.033     394.096    -483.051
  C      -32.401     394.391    -480.565
  O      -32.802     395.038    -481.765
  C      -32.673     395.276    -479.348
  O      -34.090     395.509    -479.198
  C      -32.210     394.678    -478.026
  O      -30.805     394.813    -477.889
  C      -33.021     395.499    -477.037
  O      -32.406     396.769    -476.765
  C      -34.358     395.691    -477.790
  N      -35.405     394.789    -477.316
  C      -36.014     395.147    -476.106
  O      -35.633     396.146    -475.486
  N      -36.988     394.323    -475.595
  C      -37.325     393.236    -476.229
  N      -38.295     392.472    -475.673
  C      -36.682     392.820    -477.493
  C      -35.738     393.627    -477.974
  O      -31.797     393.681    -483.771
  O      -33.855     392.864    -482.437
  H      -33.054     397.268    -476.221
  H      -34.020     392.165    -483.115
  H      -36.975     391.899    -477.984
  H      -35.216     393.391    -478.892
  H      -34.719     396.719    -477.681
  H      -33.141     394.984    -476.072
  H      -32.504     393.622    -477.974
  H      -32.183     396.250    -479.520
  H      -38.685     392.783    -474.794
  H      -31.330     394.181    -480.621
  H      -38.600     391.588    -476.060
  H      -32.937     393.435    -480.473
  P      -30.043     394.056    -476.704
  C      -30.641     393.792    -474.227
  O      -30.544     394.681    -475.319
  O      -28.568     393.938    -476.861
  O      -30.721     392.594    -476.703
  H      -30.016     391.916    -476.615
  H      -30.655     394.373    -473.301
  H      -29.791     393.111    -474.199
  H      -31.570     393.220    -474.298
  H      -36.021     395.578    -484.187
  H      -35.404     395.630    -482.553
  H      -35.893     394.106    -483.254

 3  4  5  6  7  8  9  10  11  12  13  23  27  28  29  30  32 0
 6-311+G(2d,p)
 ****
 34  35 0
 6-311+G(2d,p)
 ****
 1  2  14  15  16  17  18  19  20  21  22  24  25  26 0
 3-21G
 ****
 31  33  36  37  38  39  40  41  42  43  44  45  46 0
 3-21G
 ****


