%nproc=1
%NoSave
%Mem=1900MB
#P OB98/GEN NMR

erre ene a

0 1
  C      -46.902    -398.001    -303.722
  O      -48.182    -397.779    -303.152
  P      -49.156    -396.763    -303.926
  C      -49.487    -395.292    -301.798
  O      -49.062    -395.368    -303.148
  C      -48.697    -394.205    -301.066
  O      -47.287    -394.339    -301.351
  C      -49.077    -392.783    -301.456
  O      -50.238    -392.369    -300.755
  C      -47.819    -392.012    -301.070
  O      -47.800    -391.737    -299.656
  C      -46.711    -393.005    -301.452
  N      -43.298    -390.434    -304.160
  C      -43.707    -390.266    -302.847
  N      -43.074    -389.302    -302.145
  N      -44.637    -390.982    -302.278
  C      -45.190    -391.899    -303.104
  C      -44.890    -392.150    -304.422
  C      -43.817    -391.391    -305.026
  O      -43.358    -391.567    -306.152
  N      -45.677    -393.147    -304.940
  C      -46.429    -393.517    -303.922
  N      -46.161    -392.806    -302.780
  O      -50.609    -397.314    -303.574
  O      -48.920    -396.658    -305.405
  H      -46.996    -391.230    -299.439
  H      -50.960    -397.866    -304.301
  H      -42.566    -389.867    -304.543
  H      -47.170    -394.304    -303.957
  H      -45.866    -392.971    -300.748
  H      -47.751    -391.048    -301.576
  H      -42.363    -388.692    -302.527
  H      -49.234    -392.711    -302.538
  H      -43.358    -389.160    -301.184
  H      -48.832    -394.358    -299.987
  H      -49.314    -396.252    -301.310
  H      -50.559    -395.070    -301.770
  P      -51.592    -392.201    -301.600
  C      -51.777    -389.708    -300.894
  O      -51.733    -390.645    -301.955
  O      -52.737    -392.455    -300.512
  O      -51.719    -393.137    -302.758
  H      -53.486    -392.921    -300.930
  H      -51.357    -388.766    -301.242
  H      -51.209    -390.049    -300.026
  H      -52.817    -389.547    -300.601
  H      -46.356    -398.692    -303.115
  H      -46.369    -397.074    -303.775
  H      -47.015    -398.404    -304.707

 3  4  5  6  7  8  9  10  11  12  23  26  30  31 0
 6-311+G(2d,p)
 ****
 33  35  36  37  38 0
 6-311+G(2d,p)
 ****
 1  2  13  14  15  16  17  18  19  20  21  22  24  25 0
 3-21G
 ****
 27  28  29  32  34  39  40  41  42  43  44  45  46  47  48  49 0
 3-21G
 ****


