%nproc=1
%NoSave
%Mem=1900MB
#P OB98/GEN NMR

erre ene a

0 1
  C     -134.699    -303.779     583.811
  O     -135.245    -303.799     585.131
  P     -134.390    -303.732     586.477
  C     -134.332    -306.304     587.048
  O     -133.629    -305.126     586.664
  C     -133.421    -307.255     587.850
  O     -134.254    -308.256     588.510
  C     -132.422    -308.008     586.956
  O     -131.114    -308.104     587.513
  C     -133.154    -309.312     586.670
  O     -132.289    -310.356     586.240
  C     -133.907    -309.553     587.980
  N     -135.832    -314.008     586.386
  C     -134.560    -313.497     586.218
  N     -133.683    -314.258     585.525
  N     -134.179    -312.334     586.678
  C     -135.170    -311.635     587.282
  C     -136.474    -312.035     587.498
  C     -136.874    -313.346     587.031
  O     -137.975    -313.857     587.164
  N     -137.190    -311.064     588.154
  C     -136.329    -310.078     588.323
  N     -135.083    -310.387     587.816
  O     -135.105    -303.191     587.674
  O     -133.194    -302.716     586.127
  H     -132.775    -311.195     586.321
  H     -132.969    -302.248     586.954
  H     -136.064    -314.917     586.034
  H     -136.541    -309.135     588.817
  H     -133.280    -310.058     588.722
  H     -133.861    -309.124     585.852
  H     -133.944    -315.101     585.037
  H     -132.261    -307.470     586.015
  H     -132.834    -313.781     585.215
  H     -132.901    -306.673     588.626
  H     -134.636    -306.786     586.116
  H     -135.234    -306.050     587.612
  P     -129.760    -307.418     587.004
  C     -128.591    -309.621     586.399
  O     -129.080    -308.390     585.911
  O     -128.757    -307.510     588.242
  O     -129.912    -305.997     586.562
  H     -128.500    -306.612     588.532
  H     -127.932    -310.054     585.641
  H     -129.432    -310.309     586.569
  H     -128.029    -309.482     587.329
  H     -135.493    -303.836     583.096
  H     -134.044    -304.615     583.683
  H     -134.152    -302.871     583.665

 3  4  5  6  7  8  9  10  11  12  23  26  30  31 0
 6-311+G(2d,p)
 ****
 33  35  36  37  38 0
 6-311+G(2d,p)
 ****
 1  2  13  14  15  16  17  18  19  20  21  22  24  25 0
 3-21G
 ****
 27  28  29  32  34  39  40  41  42  43  44  45  46  47  48  49 0
 3-21G
 ****


