%nproc=1
%NoSave
%Mem=1900MB
#P OB98/GEN NMR

erre ene a

0 1
  C        3.162     312.009    -131.102
  O        2.657     313.192    -131.683
  H        4.113     311.763    -131.582
  H        2.459     311.186    -131.270
  H        3.331     312.135    -130.031
  P        1.448     313.955    -130.960
  C        0.299     316.250    -131.219
  O        1.145     315.277    -131.815
  C       -0.098     317.324    -132.241
  O        0.879     318.399    -132.196
  C       -0.086     316.774    -133.671
  O       -1.002     317.461    -134.521
  C        1.335     317.064    -134.134
  O        1.459     317.121    -135.553
  C        1.610     318.392    -133.432
  N        6.228     319.256    -135.419
  C        5.061     318.879    -136.052
  N        5.134     318.715    -137.397
  N        3.935     318.663    -135.429
  C        4.024     318.794    -134.084
  C        5.130     319.136    -133.338
  C        6.366     319.410    -134.043
  O        7.431     319.722    -133.527
  N        4.839     319.161    -131.995
  C        3.567     318.829    -131.928
  N        3.020     318.620    -133.171
  O        2.122     314.548    -129.632
  O        0.253     313.111    -130.640
  H        0.823     317.785    -135.877
  H        1.440     314.723    -128.956
  H        7.064     319.438    -135.949
  H        2.994     318.741    -131.018
  H        1.247     319.233    -134.042
  H        1.981     316.254    -133.782
  H        6.020     318.679    -137.878
  H       -0.298     315.703    -133.712
  H        4.394     318.150    -137.827
  H       -1.066     317.763    -131.969
  H        0.854     316.694    -130.390
  H       -0.589     315.775    -130.798
  P       -2.206     316.634    -135.181
  C       -4.791     317.134    -135.436
  O       -3.457     317.596    -135.420
  O       -2.682     315.657    -134.014
  O       -1.826     315.882    -136.425
  H       -2.524     314.727    -134.260
  H       -5.451     317.957    -135.613
  H       -5.024     316.686    -134.493
  H       -4.908     316.409    -136.214

 6  7  8  9  10  11  12  13  14  15  26  29  33  34 0
 6-311+G(2d,p)
 ****
 36  38  39  40  41 0
 6-311+G(2d,p)
 ****
 1  2  3  4  5  16  17  18  19  20  21  22  23  24  25 0
 3-21G
 ****
 27  28  30  31  32  35  37  42  43  44  45  46  47 0
 3-21G
 ****
 48  49 0
 3-21G
 ****


