%nproc=1
%NoSave
%Mem=1900MB
#P OB98/GEN NMR

erre ene a

0 1
  C     -103.573     -69.403      85.572
  O     -102.261     -69.816      85.240
  P     -100.979     -69.018      85.776
  C     -100.421     -68.445      83.327
  O     -100.659     -67.931      84.635
  C     -101.073     -67.544      82.284
  O     -102.410     -67.207      82.740
  C     -100.385     -66.201      82.032
  O      -99.311     -66.252      81.115
  C     -101.529     -65.398      81.425
  O     -101.694     -65.763      80.040
  C     -102.735     -65.884      82.247
  N     -106.123     -62.584      84.211
  C     -106.133     -63.325      83.083
  N     -105.181     -64.169      82.611
  C     -104.159     -64.240      83.477
  C     -104.007     -63.547      84.672
  C     -105.055     -62.687      85.036
  N     -105.052     -61.951      86.202
  N     -102.802     -63.871      85.278
  C     -102.245     -64.747      84.460
  N     -103.028     -65.007      83.369
  O      -99.834     -69.882      86.185
  O     -101.540     -68.124      86.975
  H     -102.024     -66.683      80.027
  H     -100.801     -67.804      87.533
  H     -107.024     -63.229      82.461
  H     -101.293     -65.203      84.622
  H     -103.649     -65.974      81.638
  H     -101.362     -64.323      81.460
  H     -100.080     -65.729      82.980
  H     -101.171     -68.114      81.342
  H     -100.866     -69.449      83.261
  H     -105.901     -61.461      86.449
  H     -104.341     -62.148      86.891
  H      -99.345     -68.538      83.151
  P      -97.839     -65.912      81.681
  C      -97.736     -64.003      79.893
  O      -97.543     -64.401      81.234
  O      -96.789     -66.911      81.317
  O      -98.088     -65.781      83.267
  H      -98.633     -65.029      83.535
  H      -97.644     -62.912      79.829
  H      -98.731     -64.284      79.540
  H      -96.978     -64.458      79.251
  H     -104.281     -70.065      85.118
  H     -103.735     -68.408      85.214
  H     -103.696     -69.425      86.635

 3  4  5  6  7  8  9  10  11  12  22  25  29  30  31  32 0
 6-311+G(2d,p)
 ****
 33  36  37 0
 6-311+G(2d,p)
 ****
 1  2  13  14  15  16  17  18  19  20  21  23  24  26 0
 3-21G
 ****
 27  28  34  35  38  39  40  41  42  43  44  45  46  47  48 0
 3-21G
 ****


