%nproc=1
%NoSave
%Mem=1900MB
#P OB98/GEN NMR

erre ene a

0 1
  C      -37.360     100.183     -31.931
  O      -37.333     101.476     -31.362
  H      -36.393      99.950     -32.381
  H      -37.567      99.455     -31.143
  H      -38.147     100.119     -32.687
  P      -37.004     102.695     -32.351
  C      -38.240     104.871     -33.028
  O      -38.353     103.558     -32.496
  C      -39.439     105.712     -32.596
  O      -40.642     105.099     -33.125
  C      -39.606     105.855     -31.074
  O      -39.596     107.237     -30.703
  C      -40.990     105.291     -30.790
  O      -41.717     106.045     -29.822
  C      -41.671     105.321     -32.153
  N      -46.705     104.551     -32.307
  C      -45.959     105.642     -32.590
  N      -44.615     105.751     -32.633
  C      -44.034     104.568     -32.370
  C      -44.661     103.367     -32.088
  C      -46.065     103.388     -32.043
  N      -46.824     102.291     -31.700
  N      -43.731     102.370     -31.862
  C      -42.562     102.970     -31.964
  N      -42.696     104.303     -32.250
  O      -36.861     101.982     -33.778
  O      -35.786     103.481     -32.002
  H      -41.325     105.837     -28.953
  H      -36.049     102.294     -34.220
  H      -46.515     106.550     -32.804
  H      -41.599     102.504     -31.797
  H      -42.131     106.294     -32.363
  H      -40.886     104.264     -30.420
  H      -38.838     105.315     -30.511
  H      -39.350     106.702     -33.062
  H      -38.217     104.822     -34.122
  H      -47.814     102.426     -31.578
  H      -46.350     101.453     -31.396
  H      -37.305     105.318     -32.679
  P      -38.220     107.810     -30.095
  C      -36.090     108.077     -31.567
  O      -37.419     108.505     -31.298
  O      -37.376     106.480     -29.809
  O      -38.399     108.637     -28.867
  H      -36.739     106.638     -29.086
  H      -35.696     108.633     -32.392
  H      -36.093     107.035     -31.808
  H      -35.481     108.242     -30.703

 6  7  8  9  10  11  12  13  14  15  25  28  32  33  34  35 0
 6-311+G(2d,p)
 ****
 36  39  40 0
 6-311+G(2d,p)
 ****
 1  2  3  4  5  16  17  18  19  20  21  22  23  24 0
 3-21G
 ****
 26  27  29  30  31  37  38  41  42  43  44  45  46  47  48 0
 3-21G
 ****


