%nproc=1
%NoSave
%Mem=1900MB
#P OB98/GEN NMR

erre ene a

0 1
  C     -627.780      13.762    -567.804
  O     -629.011      14.372    -567.432
  P     -629.568      15.513    -568.420
  C     -629.786      16.872    -566.192
  O     -629.512      16.884    -567.589
  C     -629.208      18.129    -565.541
  O     -627.773      18.099    -565.566
  C     -629.630      19.424    -566.225
  O     -630.921      19.821    -565.807
  C     -628.515      20.373    -565.784
  O     -628.769      20.875    -564.453
  C     -627.283      19.450    -565.789
  N     -624.416      22.380    -568.756
  C     -625.163      22.705    -567.647
  N     -625.105      23.985    -567.237
  N     -625.910      21.846    -566.982
  C     -625.876      20.603    -567.514
  C     -625.189      20.163    -568.617
  C     -624.334      21.106    -569.308
  O     -623.574      20.847    -570.236
  N     -625.440      18.838    -568.872
  C     -626.244      18.470    -567.889
  N     -626.530      19.497    -567.034
  O     -631.123      15.167    -568.515
  O     -628.894      15.583    -569.759
  H     -629.643      21.305    -564.429
  H     -631.311      14.679    -569.345
  H     -623.854      23.081    -569.203
  H     -626.621      17.470    -567.755
  H     -626.590      19.688    -564.985
  H     -628.437      21.249    -566.420
  H     -624.582      24.711    -567.704
  H     -629.588      19.312    -567.319
  H     -625.656      24.245    -566.421
  H     -629.530      18.135    -564.479
  H     -629.305      15.983    -565.750
  H     -630.871      16.797    -566.034
  P     -632.160      19.396    -566.736
  C     -633.690      21.161    -565.601
  O     -633.143      20.654    -566.801
  O     -632.947      18.330    -565.835
  O     -631.783      18.814    -568.047
  H     -633.322      17.636    -566.403
  H     -633.879      22.235    -565.719
  H     -633.019      21.005    -564.752
  H     -634.644      20.659    -565.399
  H     -627.513      13.025    -567.076
  H     -627.014      14.507    -567.855
  H     -627.888      13.296    -568.761

 3  4  5  6  7  8  9  10  11  12  23  26  30  31 0
 6-311+G(2d,p)
 ****
 33  35  36  37  38 0
 6-311+G(2d,p)
 ****
 1  2  13  14  15  16  17  18  19  20  21  22  24  25 0
 3-21G
 ****
 27  28  29  32  34  39  40  41  42  43  44  45  46  47  48  49 0
 3-21G
 ****


