%nproc=1
%NoSave
%Mem=1900MB
#P OB98/GEN NMR

erre ene a

0 1
  C      155.539      76.200     -57.072
  O      154.239      75.844     -56.585
  P      153.875      75.871     -55.021
  C      152.821      78.219     -54.891
  O      153.917      77.392     -54.511
  C      151.916      78.545     -53.699
  O      152.662      79.207     -52.657
  C      150.745      79.466     -54.025
  O      149.704      78.743     -54.658
  C      150.402      80.015     -52.645
  O      149.599      79.073     -51.914
  C      151.788      80.148     -52.003
  N      151.138      85.024     -50.602
  C      150.442      83.900     -50.319
  N      150.674      82.636     -50.735
  C      151.775      82.589     -51.504
  C      152.586      83.649     -51.881
  C      152.230      84.919     -51.396
  N      152.934      86.062     -51.698
  N      153.609      83.216     -52.698
  C      153.430      81.913     -52.796
  N      152.337      81.488     -52.094
  O      154.675      74.924     -54.189
  O      152.318      75.503     -54.960
  H      148.885      78.776     -52.507
  H      152.115      75.074     -54.107
  H      149.579      84.035     -49.672
  H      154.063      81.242     -53.360
  H      151.771      79.872     -50.943
  H      149.844      80.955     -52.690
  H      151.082      80.287     -54.669
  H      151.553      77.596     -53.286
  H      152.240      77.691     -55.657
  H      152.595      86.941     -51.337
  H      153.720      86.001     -52.327
  H      153.216      79.145     -55.324
  P      149.256      79.120     -56.149
  C      150.462      77.237     -57.407
  O      150.424      78.624     -57.129
  O      148.809      80.527     -56.353
  O      148.075      78.084     -56.460
  H      147.449      78.488     -57.090
  H      150.939      76.712     -56.576
  H      151.051      77.077     -58.313
  H      149.454      76.839     -57.563
  H      155.557      76.111     -58.138
  H      156.271      75.545     -56.647
  H      155.760      77.210     -56.795

 3  4  5  6  7  8  9  10  11  12  22  25  29  30  31  32 0
 6-311+G(2d,p)
 ****
 33  36  37 0
 6-311+G(2d,p)
 ****
 1  2  13  14  15  16  17  18  19  20  21  23  24  26 0
 3-21G
 ****
 27  28  34  35  38  39  40  41  42  43  44  45  46  47  48 0
 3-21G
 ****


