%nproc=1
%NoSave
%Mem=1900MB
#P OB98/GEN NMR

erre ene a

0 1
  C      562.267     -31.826     -60.903
  O      562.882     -30.563     -61.063
  H      562.812     -32.384     -60.135
  H      562.298     -32.394     -61.835
  H      561.233     -31.700     -60.575
  P      562.378     -29.603     -62.242
  C      563.336     -27.456     -61.187
  O      563.395     -28.361     -62.283
  C      564.188     -27.961     -60.022
  O      565.513     -28.283     -60.526
  C      564.344     -26.943     -58.888
  O      564.339     -27.647     -57.647
  C      565.713     -26.350     -59.160
  O      566.282     -25.796     -57.990
  C      566.473     -27.542     -59.751
  N      567.607     -27.096     -60.559
  C      568.303     -28.086     -61.262
  O      567.944     -29.262     -61.192
  N      569.424     -27.738     -61.967
  C      569.850     -26.514     -61.935
  N      570.989     -26.242     -62.627
  C      569.164     -25.441     -61.186
  C      568.064     -25.796     -60.529
  O      560.935     -29.228     -62.214
  O      562.747     -30.415     -63.573
  H      566.302     -26.475     -57.283
  H      561.996     -30.978     -63.838
  H      569.565     -24.438     -61.185
  H      567.499     -25.078     -59.943
  H      566.845     -28.199     -58.955
  H      565.629     -25.548     -59.905
  H      563.560     -26.177     -58.890
  H      563.756     -28.899     -59.653
  H      571.437     -27.016     -63.105
  H      562.290     -27.382     -60.870
  H      571.440     -25.341     -62.639
  H      563.679     -26.467     -61.505
  P      563.095     -27.520     -56.641
  C      563.615     -29.466     -55.061
  O      563.538     -28.049     -55.188
  O      561.818     -28.106     -57.150
  O      562.938     -25.938     -56.422
  H      562.001     -25.731     -56.248
  H      563.915     -29.719     -54.066
  H      564.331     -29.848     -55.758
  H      562.656     -29.895     -55.264

 6  7  8  9  10  11  12  13  14  15  16  26  30  31  32  33  35 0
 6-311+G(2d,p)
 ****
 37  38 0
 6-311+G(2d,p)
 ****
 1  2  3  4  5  17  18  19  20  21  22  23  24  25 0
 3-21G
 ****
 27  28  29  34  36  39  40  41  42  43  44  45  46 0
 3-21G
 ****


