%nproc=1
%NoSave
%Mem=1900MB
#P OB98/GEN NMR

erre ene a

0 1
  C       74.302     861.869    -121.000
  O       73.678     860.596    -121.122
  P       72.461     860.267    -120.111
  C       73.519     858.072    -119.233
  O       73.125     859.400    -118.933
  C       73.859     857.286    -117.938
  O       75.133     857.761    -117.422
  C       72.871     857.511    -116.798
  O       71.719     856.710    -116.933
  C       73.703     857.090    -115.597
  O       73.677     855.664    -115.476
  C       75.115     857.571    -115.991
  N       78.522     859.868    -113.021
  C       78.473     858.554    -113.457
  N       79.476     857.741    -113.069
  N       77.496     858.085    -114.201
  C       76.585     859.007    -114.559
  C       76.523     860.340    -114.177
  C       77.583     860.837    -113.315
  O       77.634     861.984    -112.845
  N       75.441     860.965    -114.728
  C       74.877     860.039    -115.469
  N       75.509     858.828    -115.376
  O       71.613     859.165    -120.925
  O       71.646     861.418    -119.699
  H       74.325     855.420    -114.780
  H       70.672     859.184    -120.617
  H       79.290     860.176    -112.472
  H       73.994     860.205    -116.095
  H       75.874     856.810    -115.743
  H       73.324     857.497    -114.649
  H       80.319     858.096    -112.588
  H       72.598     858.587    -116.693
  H       79.467     856.790    -113.430
  H       73.950     856.243    -118.166
  H       74.409     858.069    -119.861
  H       72.708     857.564    -119.758
  P       70.418     857.169    -116.111
  C       69.957     854.807    -115.133
  O       70.305     856.147    -114.856
  O       69.198     856.734    -117.055
  O       70.381     858.611    -115.792
  H       68.394     857.291    -116.888
  H       70.399     854.444    -116.075
  H       68.887     854.698    -115.167
  H       70.357     854.153    -114.321
  H       75.085     861.953    -121.724
  H       74.713     861.972    -120.017
  H       73.578     862.639    -121.167

 3  4  5  6  7  8  9  10  11  12  23  26  30  31  33  0
 6-311+G(2d,p)
 ****
 35  36  37  38 0
 6-311+G(2d,p)
 ****
 1  2  13  14  15  16  17  18  19  20  21  22  24  25  27  28  29 0
 3-21G
 ****
 32  34  39  40  41  42  43  44  45  46  47  48  49 0
 3-21G
 ****


