%nproc=1
%NoSave
%Mem=1900MB
#P OB98/GEN NMR

erre ene a

0 1
  C     1165.489    -795.424     -82.706
  O     1166.324    -794.808     -83.719
  P     1165.828    -793.390     -84.291
  C     1167.448    -791.735     -83.054
  O     1166.124    -792.307     -83.154
  C     1167.546    -790.497     -83.938
  O     1166.601    -789.533     -83.528
  C     1168.909    -789.838     -83.902
  O     1169.857    -790.561     -84.699
  C     1168.561    -788.451     -84.455
  O     1168.643    -788.432     -85.892
  C     1167.108    -788.232     -83.951
  N     1167.026    -787.259     -82.888
  C     1167.139    -785.898     -83.296
  O     1167.276    -785.646     -84.469
  N     1167.062    -784.928     -82.326
  C     1166.958    -785.239     -81.068
  N     1166.900    -784.221     -80.178
  C     1166.869    -786.654     -80.606
  C     1166.918    -787.593     -81.554
  O     1164.247    -793.515     -84.280
  O     1166.377    -793.064     -85.650
  H     1168.226    -787.589     -86.176
  H     1163.845    -792.956     -84.990
  H     1166.753    -786.860     -79.557
  H     1166.859    -788.655     -81.296
  H     1166.485    -787.897     -84.772
  H     1169.281    -787.691     -84.085
  H     1169.260    -789.762     -82.867
  H     1167.285    -790.815     -84.981
  H     1166.974    -783.293     -80.526
  H     1168.155    -792.507     -83.373
  H     1166.778    -784.388     -79.183
  H     1167.658    -791.491     -82.018
  P     1171.038    -791.282     -83.925
  C     1169.938    -793.498     -84.626
  O     1170.468    -792.754     -83.562
  O     1171.024    -790.571     -82.498
  O     1172.406    -791.261     -84.581
  H     1171.810    -790.863     -81.981
  H     1169.709    -794.529     -84.277
  H     1170.622    -793.568     -85.453
  H     1168.976    -793.057     -84.972
  H     1165.920    -796.356     -82.407
  H     1164.511    -795.595     -83.106
  H     1165.419    -794.775     -81.858

 3  4  5  6  7  8  9  10  11  12  13  21  23  27  28  29  30  32 0
 6-311+G(2d,p)
 ****
 34  35 0
 6-311+G(2d,p)
 ****
 1  2  14  15  16  17  18  19  20  22  24  25  26 0
 3-21G
 ****
 31  33  36  37  38  39  40  41  42  43  44  45  46 0
 3-21G
 ****


