%nproc=1
%NoSave
%Mem=1900MB
#P OB98/GEN NMR

erre ene a

0 1
  C      725.365    -241.251     236.248
  O      726.787    -241.071     236.255
  P      727.605    -241.857     237.395
  C      728.016    -239.716     238.829
  O      727.448    -241.019     238.764
  C      728.402    -239.365     240.261
  O      727.238    -239.231     241.104
  C      729.266    -240.408     240.949
  O      730.634    -240.314     240.561
  C      729.085    -240.027     242.418
  O      729.991    -238.946     242.747
  C      727.631    -239.532     242.456
  N      724.920    -240.967     246.504
  C      725.760    -239.884     246.340
  N      725.873    -239.039     247.388
  N      726.432    -239.643     245.236
  C      726.184    -240.546     244.255
  C      725.390    -241.657     244.300
  C      724.681    -241.931     245.535
  O      723.954    -242.907     245.753
  N      725.402    -242.339     243.098
  C      726.189    -241.620     242.324
  N      726.709    -240.521     242.991
  O      729.134    -241.622     236.990
  O      727.272    -243.308     237.490
  H      730.081    -238.937     243.724
  H      729.692    -242.341     237.313
  H      724.440    -241.113     247.371
  H      726.409    -241.840     241.294
  H      727.519    -238.610     243.042
  H      729.317    -240.851     243.097
  H      725.335    -239.115     248.243
  H      728.863    -241.427     240.789
  H      726.468    -238.216     247.278
  H      728.935    -238.409     240.246
  H      727.286    -238.980     238.462
  H      728.885    -239.669     238.161
  P      730.989    -240.691     239.045
  C      731.581    -243.191     239.380
  O      730.651    -242.241     238.868
  O      732.583    -240.624     239.028
  O      730.384    -239.779     238.016
  H      732.911    -240.381     238.146
  H      731.944    -242.891     240.375
  H      732.414    -243.288     238.702
  H      731.068    -244.150     239.468
  H      724.937    -240.681     235.449
  H      724.959    -240.919     237.180
  H      725.137    -242.287     236.109

 3  4  5  6  7  8  9  10  11  12  23  26  30  31  33  0
 6-311+G(2d,p)
 ****
 35  36  37  38 0
 6-311+G(2d,p)
 ****
 1  2  13  14  15  16  17  18  19  20  21  22  24  25  27  28  29 0
 3-21G
 ****
 32  34  39  40  41  42  43  44  45  46  47  48  49 0
 3-21G
 ****


