%nproc=1
%NoSave
%Mem=1900MB
#P OB98/GEN NMR

erre ene a

0 1
  C      441.525    -524.654     861.547
  O      440.727    -523.489     861.663
  H      441.839    -524.995     862.540
  H      440.941    -525.444     861.066
  H      442.407    -524.442     860.933
  P      441.389    -522.222     862.378
  C      441.703    -520.909     860.161
  O      442.323    -521.504     861.287
  C      442.449    -519.642     859.751
  O      443.749    -520.032     859.252
  C      441.747    -518.798     858.668
  O      441.515    -517.469     859.152
  C      442.751    -518.734     857.524
  O      442.817    -517.447     856.908
  C      444.072    -519.107     858.191
  N      447.879    -518.096     854.968
  C      447.429    -517.421     856.035
  N      446.472    -517.784     856.921
  C      446.005    -519.018     856.622
  C      446.397    -519.843     855.578
  C      447.371    -519.320     854.712
  N      447.806    -519.992     853.586
  N      445.680    -521.029     855.602
  C      444.841    -520.910     856.596
  N      444.999    -519.697     857.244
  O      442.434    -522.872     863.399
  O      440.432    -521.314     863.074
  H      441.896    -517.173     856.738
  H      442.335    -522.465     864.287
  H      447.872    -516.445     856.212
  H      444.090    -521.623     856.886
  H      444.558    -518.230     858.649
  H      442.478    -519.482     856.774
  H      440.795    -519.244     858.338
  H      442.624    -519.036     860.654
  H      440.668    -520.639     860.424
  H      448.422    -519.506     852.956
  H      447.349    -520.857     853.325
  H      441.671    -521.632     859.337
  P      440.198    -517.243     860.044
  C      441.370    -516.669     862.300
  O      440.579    -517.602     861.556
  O      439.254    -518.465     859.608
  O      439.538    -515.924     859.839
  H      438.328    -518.221     859.736
  H      441.538    -517.050     863.286
  H      440.854    -515.734     862.363
  H      442.309    -516.526     861.808

 6  7  8  9  10  11  12  13  14  15  25  28  32  33  34  35 0
 6-311+G(2d,p)
 ****
 36  39  40 0
 6-311+G(2d,p)
 ****
 1  2  3  4  5  16  17  18  19  20  21  22  23  24 0
 3-21G
 ****
 26  27  29  30  31  37  38  41  42  43  44  45  46  47  48 0
 3-21G
 ****


