%nproc=1
%NoSave
%Mem=1900MB
#P OB98/GEN NMR

erre ene a

0 1
  C      -14.044    -109.670     205.487
  O      -14.508    -110.939     205.911
  P      -15.246    -111.926     204.894
  C      -17.598    -111.747     206.044
  O      -16.803    -111.579     204.893
  C      -19.042    -112.035     205.614
  O      -19.604    -110.881     204.955
  C      -19.114    -113.212     204.644
  O      -19.386    -114.417     205.341
  C      -20.225    -112.796     203.699
  O      -21.512    -113.082     204.278
  C      -20.003    -111.267     203.613
  N      -18.985    -110.764     202.671
  C      -19.239    -110.792     201.303
  O      -20.290    -111.190     200.813
  N      -18.213    -110.363     200.499
  C      -17.012    -109.879     200.930
  O      -16.027    -109.729     200.214
  C      -16.913    -109.621     202.370
  C      -17.877    -110.089     203.163
  O      -15.182    -113.336     205.647
  O      -14.654    -111.996     203.524
  H      -21.576    -114.048     204.374
  H      -14.448    -113.878     205.301
  H      -18.338    -110.512     199.503
  H      -16.035    -109.109     202.741
  H      -17.807    -109.944     204.239
  H      -20.940    -110.747     203.382
  H      -20.180    -113.356     202.767
  H      -18.180    -113.292     204.073
  H      -19.645    -112.239     206.507
  H      -17.557    -110.844     206.664
  H      -17.212    -112.573     206.651
  P      -19.414    -115.804     204.543
  C      -21.906    -115.982     205.112
  O      -20.939    -115.994     204.081
  O      -18.808    -116.969     205.251
  O      -18.633    -115.460     203.186
  H      -17.701    -115.752     203.257
  H      -22.899    -115.939     204.660
  H      -21.771    -115.110     205.758
  H      -21.827    -116.898     205.704
  H      -13.582    -109.166     206.310
  H      -14.869    -109.089     205.131
  H      -13.330    -109.796     204.700

 3  4  5  6  7  8  9  10  11  12  13  23  28  29  30  31  32 0
 6-311+G(2d,p)
 ****
 33  34 0
 6-311+G(2d,p)
 ****
 1  2  14  15  16  17  18  19  20  21  22  24  25  26  27 0
 3-21G
 ****
 35  36  37  38  39  40  41  42  43  44  45 0
 3-21G
 ****


