%nproc=1
%NoSave
%Mem=1900MB
#P OB98/GEN NMR

erre ene a

0 1
  C       58.589    -148.548    -399.445
  O       59.242    -149.490    -398.610
  P       58.486    -150.174    -397.367
  C       59.882    -148.761    -395.708
  O       58.588    -149.111    -396.168
  C       59.867    -148.567    -394.187
  O       59.076    -147.391    -393.879
  C       59.271    -149.743    -393.403
  O       59.991    -149.847    -392.176
  C       57.841    -149.294    -393.152
  O       57.243    -149.963    -392.054
  C       58.047    -147.787    -392.949
  N       56.827    -147.021    -393.157
  C       56.013    -146.769    -392.049
  O       56.312    -147.206    -390.934
  N       54.871    -146.028    -392.220
  C       54.524    -145.641    -393.412
  N       53.415    -144.858    -393.524
  C       55.293    -145.977    -394.624
  C       56.431    -146.639    -394.420
  O       58.962    -151.543    -397.021
  O       56.940    -150.095    -397.747
  H       57.848    -149.898    -391.290
  H       56.639    -150.850    -398.318
  H       54.949    -145.657    -395.600
  H       57.076    -146.908    -395.252
  H       58.440    -147.591    -391.945
  H       57.234    -149.492    -394.040
  H       59.342    -150.695    -393.945
  H       60.900    -148.371    -393.857
  H       53.018    -144.509    -392.658
  H       60.177    -147.819    -396.178
  H       53.273    -144.265    -394.332
  H       60.600    -149.534    -395.997
  P       60.349    -151.311    -391.615
  C       58.695    -151.209    -389.615
  O       59.075    -151.857    -390.810
  O       61.375    -150.966    -390.424
  O       60.992    -152.249    -392.581
  H       61.958    -151.734    -390.276
  H       57.812    -151.708    -389.207
  H       58.445    -150.161    -389.810
  H       59.497    -151.269    -388.873
  H       59.265    -148.218    -400.206
  H       58.274    -147.710    -398.859
  H       57.736    -149.006    -399.900

 3  4  5  6  7  8  9  10  11  12  13  23  27  28  29  30  32 0
 6-311+G(2d,p)
 ****
 34  35 0
 6-311+G(2d,p)
 ****
 1  2  14  15  16  17  18  19  20  21  22  24  25  26 0
 3-21G
 ****
 31  33  36  37  38  39  40  41  42  43  44  45  46 0
 3-21G
 ****


