%nproc=1
%NoSave
%Mem=1900MB
#P OB98/GEN NMR

erre ene a

0 1
  C      374.317      65.671    -636.886
  O      373.130      66.429    -637.010
  H      374.826      65.912    -635.949
  H      374.050      64.611    -636.883
  H      374.983      65.864    -637.733
  P      373.290      68.027    -636.930
  C      373.437      68.298    -634.357
  O      372.660      68.476    -635.527
  C      372.530      68.028    -633.149
  O      371.923      69.249    -632.699
  C      371.367      67.085    -633.438
  O      371.791      65.709    -633.453
  C      370.467      67.383    -632.253
  O      370.930      66.657    -631.087
  C      370.661      68.889    -632.063
  N      366.239      71.341    -631.132
  C      367.065      70.621    -630.320
  N      368.209      69.991    -630.644
  C      368.509      70.164    -631.936
  C      367.774      70.864    -632.873
  C      366.581      71.471    -632.425
  N      365.727      72.185    -633.249
  N      368.392      70.850    -634.105
  C      369.486      70.138    -633.922
  N      369.603      69.700    -632.632
  O      372.245      68.562    -638.007
  O      374.665      68.532    -637.204
  H      370.961      65.719    -631.332
  H      372.612      69.361    -638.443
  H      366.755      70.538    -629.290
  H      370.227      69.934    -634.690
  H      370.773      69.151    -630.997
  H      369.429      67.087    -632.407
  H      370.844      67.348    -634.390
  H      373.162      67.644    -632.336
  H      374.026      69.208    -634.165
  H      365.010      72.755    -632.839
  H      366.005      72.300    -634.225
  H      374.135      67.463    -634.508
  P      371.284      64.787    -634.668
  C      369.018      64.226    -633.537
  O      370.256      63.728    -634.013
  O      372.575      63.921    -635.002
  O      370.777      65.526    -635.869
  H      372.537      63.606    -635.948
  H      368.441      63.421    -633.132
  H      368.481      64.678    -634.345
  H      369.196      64.955    -632.775

 6  7  8  9  10  11  12  13  14  15  25  28  32  33  34  35 0
 6-311+G(2d,p)
 ****
 36  39  40 0
 6-311+G(2d,p)
 ****
 1  2  3  4  5  16  17  18  19  20  21  22  23  24 0
 3-21G
 ****
 26  27  29  30  31  37  38  41  42  43  44  45  46  47  48 0
 3-21G
 ****


