%nproc=1
%NoSave
%Mem=1900MB
#P OB98/GEN NMR

erre ene a

0 1
  C     -200.707     -65.196    -546.555
  O     -199.665     -65.499    -547.467
  H     -201.659     -65.506    -546.994
  H     -200.737     -64.120    -546.372
  H     -200.567     -65.730    -545.610
  P     -198.146     -65.418    -546.964
  C     -197.697     -67.843    -547.722
  O     -197.700     -66.934    -546.641
  C     -197.749     -69.299    -547.214
  O     -199.051     -69.532    -546.609
  C     -197.567     -70.355    -548.318
  O     -196.927     -71.489    -547.727
  C     -199.008     -70.677    -548.677
  O     -199.105     -71.897    -549.382
  C     -199.656     -70.638    -547.294
  N     -201.114     -70.509    -547.364
  C     -201.817     -71.660    -547.721
  O     -201.268     -72.720    -548.018
  N     -203.189     -71.532    -547.809
  C     -203.884     -70.373    -547.611
  O     -205.105     -70.309    -547.725
  C     -203.089     -69.192    -547.277
  C     -201.756     -69.310    -547.162
  O     -197.871     -64.432    -545.877
  O     -197.311     -65.091    -548.293
  H     -200.042     -72.189    -549.423
  H     -196.505     -64.571    -548.063
  H     -203.711     -72.349    -548.057
  H     -203.616     -68.250    -547.127
  H     -201.138     -68.449    -546.907
  H     -199.428     -71.550    -546.735
  H     -199.428     -69.892    -549.325
  H     -196.986     -69.992    -549.170
  H     -197.003     -69.415    -546.431
  H     -196.779     -67.693    -548.297
  H     -198.556     -67.658    -548.374
  P     -195.341     -71.716    -547.786
  C     -195.098     -71.167    -545.285
  O     -194.652     -70.871    -546.610
  O     -194.733     -71.477    -549.139
  O     -195.123     -73.239    -547.333
  H     -194.316     -73.594    -547.736
  H     -194.575     -70.549    -544.586
  H     -194.905     -72.196    -545.065
  H     -196.149     -70.978    -545.212

 6  7  8  9  10  11  12  13  14  15  16  26  31  32  33  34  35 0
 6-311+G(2d,p)
 ****
 36  37 0
 6-311+G(2d,p)
 ****
 1  2  3  4  5  17  18  19  20  21  22  23  24  25 0
 3-21G
 ****
 27  28  29  30  38  39  40  41  42  43  44  45 0
 3-21G
 ****


