%nproc=1
%NoSave
%Mem=1900MB
#P OB98/GEN NMR

erre ene a

0 1
  C       58.184    -936.174     136.168
  O       59.342    -936.590     135.470
  H       58.317    -936.393     137.230
  H       57.316    -936.724     135.804
  H       58.024    -935.100     136.045
  P       59.442    -936.176     133.926
  C       59.327    -938.610     133.023
  O       58.708    -937.336     133.091
  C       58.595    -939.505     132.031
  O       57.245    -939.758     132.493
  C       58.461    -938.921     130.629
  O       59.636    -939.124     129.856
  C       57.295    -939.730     130.098
  O       57.749    -941.043     129.722
  C       56.379    -939.813     131.329
  N       52.269    -937.767     129.180
  C       53.019    -938.867     128.797
  N       52.626    -939.504     127.671
  N       54.062    -939.292     129.445
  C       54.348    -938.555     130.540
  C       53.684    -937.451     131.032
  C       52.519    -936.988     130.306
  O       51.807    -936.038     130.610
  N       54.270    -936.970     132.169
  C       55.296    -937.778     132.370
  N       55.397    -938.745     131.406
  O       60.991    -936.405     133.576
  O       59.016    -934.780     133.607
  H       58.338    -940.927     128.959
  H       61.278    -935.716     132.942
  H       51.476    -937.465     128.631
  H       55.994    -937.692     133.196
  H       55.823    -940.763     131.369
  H       56.835    -939.286     129.205
  H       51.858    -939.188     127.095
  H       58.181    -937.859     130.663
  H       53.138    -940.319     127.387
  H       59.116    -940.466     131.993
  H       59.311    -939.075     134.013
  H       60.370    -938.472     132.714
  P       59.742    -938.347     128.449
  C       60.383    -940.276     126.829
  O       59.353    -939.425     127.330
  O       61.323    -938.181     128.258
  O       59.022    -937.040     128.394
  H       61.506    -937.434     127.669
  H       59.973    -940.937     126.094
  H       60.795    -940.849     127.633
  H       61.153    -939.681     126.384

 6  7  8  9  10  11  12  13  14  15  26  29  33  34 0
 6-311+G(2d,p)
 ****
 36  38  39  40  41 0
 6-311+G(2d,p)
 ****
 1  2  3  4  5  16  17  18  19  20  21  22  23  24  25 0
 3-21G
 ****
 27  28  30  31  32  35  37  42  43  44  45  46  47 0
 3-21G
 ****
 48  49 0
 3-21G
 ****


