%nproc=1
%NoSave
%Mem=1900MB
#P OB98/GEN NMR

erre ene a

0 1
  C      539.266     201.640     339.133
  O      539.024     200.752     340.202
  H      540.334     201.887     339.115
  H      538.695     202.562     339.266
  H      538.999     201.166     338.183
  P      537.500     200.343     340.471
  C      535.341     201.788     340.626
  O      536.729     201.675     340.922
  C      534.955     203.262     340.538
  O      535.412     203.816     339.281
  C      533.456     203.513     340.578
  O      532.920     203.454     341.886
  C      533.391     204.917     339.987
  O      533.614     205.921     340.980
  C      534.523     204.896     338.944
  N      534.003     204.785     337.585
  C      533.371     205.923     337.079
  O      533.248     206.963     337.722
  N      532.851     205.806     335.819
  C      532.850     204.679     335.054
  O      532.310     204.621     333.949
  C      533.521     203.500     335.643
  C      534.050     203.606     336.868
  O      537.583     199.482     341.819
  O      536.844     199.583     339.364
  H      537.457     198.536     341.614
  H      532.826     205.911     341.560
  H      532.384     206.616     335.437
  H      533.533     202.587     335.057
  H      534.536     202.748     337.322
  H      535.110     205.822     339.004
  H      532.410     205.107     339.553
  H      532.939     202.820     339.901
  H      535.460     203.807     341.353
  H      534.757     201.313     341.420
  H      535.137     201.272     339.681
  P      531.448     202.846     342.065
  C      529.196     203.284     340.778
  O      530.502     203.727     341.114
  O      531.102     203.341     343.550
  O      531.384     201.374     341.853
  H      531.586     204.157     343.779
  H      528.728     204.004     340.140
  H      528.618     203.169     341.671
  H      529.258     202.344     340.270

 6  7  8  9  10  11  12  13  14  15  16  27  31  32  33  34  35 0
 6-311+G(2d,p)
 ****
 36  37 0
 6-311+G(2d,p)
 ****
 1  2  3  4  5  17  18  19  20  21  22  23  24  25 0
 3-21G
 ****
 26  28  29  30  38  39  40  41  42  43  44  45 0
 3-21G
 ****


