%nproc=1
%NoSave
%Mem=1900MB
#P OB98/GEN NMR

erre ene a

0 1
  C     -375.761     -85.099     -10.733
  O     -376.756     -86.104     -10.753
  P     -376.366     -87.637     -10.997
  C     -376.420     -88.060      -8.472
  O     -375.651     -88.172      -9.663
  C     -376.322     -89.329      -7.626
  O     -376.920     -89.079      -6.325
  C     -377.026     -90.555      -8.224
  O     -376.254     -91.700      -7.845
  C     -378.354     -90.571      -7.487
  O     -378.985     -91.845      -7.511
  C     -377.904     -90.111      -6.106
  N     -382.239     -91.271      -3.659
  C     -381.405     -92.019      -4.411
  N     -380.283     -91.631      -5.049
  C     -380.052     -90.322      -4.850
  C     -380.828     -89.428      -4.135
  C     -381.969     -89.952      -3.502
  N     -382.810     -89.213      -2.703
  N     -380.292     -88.154      -4.213
  C     -379.215     -88.286      -4.959
  N     -378.994     -89.588      -5.313
  O     -375.614     -87.910     -12.257
  O     -377.771     -88.400     -10.987
  H     -379.144     -92.092      -8.440
  H     -378.014     -88.660     -11.898
  H     -381.668     -93.069      -4.508
  H     -378.564     -87.480      -5.269
  H     -377.428     -90.917      -5.535
  H     -379.037     -89.846      -7.946
  H     -377.148     -90.513      -9.310
  H     -375.258     -89.544      -7.455
  H     -377.463     -87.899      -8.758
  H     -383.517     -89.717      -2.193
  H     -382.493     -88.311      -2.358
  H     -376.083     -87.193      -7.893
  P     -376.620     -93.143      -8.442
  C     -375.005     -92.492     -10.320
  O     -376.245     -93.098      -9.997
  O     -377.991     -93.636      -8.127
  O     -375.489     -94.098      -7.825
  H     -375.776     -95.029      -7.896
  H     -375.124     -91.405     -10.323
  H     -374.696     -92.823     -11.316
  H     -374.233     -92.769      -9.598
  H     -376.218     -84.148     -10.557
  H     -375.252     -85.082     -11.674
  H     -375.060     -85.307      -9.952

 3  4  5  6  7  8  9  10  11  12  22  25  29  30  31  32 0
 6-311+G(2d,p)
 ****
 33  36  37 0
 6-311+G(2d,p)
 ****
 1  2  13  14  15  16  17  18  19  20  21  23  24  26 0
 3-21G
 ****
 27  28  34  35  38  39  40  41  42  43  44  45  46  47  48 0
 3-21G
 ****


