%nproc=1
%NoSave
%Mem=1900MB
#P OB98/GEN NMR

erre ene a

0 1
  C     -400.161    -506.257    -109.392
  O     -399.958    -505.433    -110.519
  H     -399.276    -506.883    -109.253
  H     -401.028    -506.903    -109.543
  H     -400.303    -505.645    -108.495
  P     -401.138    -504.453    -110.986
  C     -403.042    -504.580    -112.726
  O     -402.103    -505.309    -111.943
  C     -403.948    -505.547    -113.498
  O     -403.209    -506.028    -114.646
  C     -404.369    -506.763    -112.655
  O     -405.782    -506.964    -112.635
  C     -403.492    -507.889    -113.199
  O     -404.031    -509.179    -113.039
  C     -403.256    -507.466    -114.657
  N     -402.033    -508.021    -115.237
  C     -402.003    -509.392    -115.476
  O     -402.930    -510.170    -115.250
  N     -400.834    -509.875    -116.016
  C     -399.721    -509.142    -116.308
  O     -398.707    -509.631    -116.792
  C     -399.805    -507.704    -116.006
  C     -400.934    -507.218    -115.492
  O     -400.704    -503.141    -111.551
  O     -402.025    -504.257    -109.665
  H     -403.399    -509.810    -113.442
  H     -401.860    -503.369    -109.292
  H     -400.806    -510.860    -116.209
  H     -398.931    -507.098    -116.215
  H     -401.031    -506.162    -115.254
  H     -404.092    -507.780    -115.287
  H     -402.532    -507.867    -112.663
  H     -404.125    -506.607    -111.599
  H     -404.818    -504.995    -113.874
  H     -402.481    -503.950    -113.423
  H     -403.650    -503.945    -112.072
  P     -406.655    -507.230    -111.325
  C     -407.798    -509.423    -110.420
  O     -406.673    -508.803    -111.038
  O     -407.964    -506.519    -111.259
  O     -405.727    -506.656    -110.132
  H     -406.344    -506.324    -109.446
  H     -407.615    -510.472    -110.317
  H     -408.667    -509.270    -111.026
  H     -407.957    -508.992    -109.454

 6  7  8  9  10  11  12  13  14  15  16  26  31  32  33  34  35 0
 6-311+G(2d,p)
 ****
 36  37 0
 6-311+G(2d,p)
 ****
 1  2  3  4  5  17  18  19  20  21  22  23  24  25 0
 3-21G
 ****
 27  28  29  30  38  39  40  41  42  43  44  45 0
 3-21G
 ****


