%nproc=1
%NoSave
%Mem=1900MB
#P OB98/GEN NMR

erre ene a

0 1
  C     -102.532     -71.543     -57.475
  O     -103.858     -71.851     -57.098
  H     -101.978     -72.475     -57.607
  H     -102.044     -70.951     -56.696
  H     -102.528     -70.992     -58.419
  P     -104.831     -70.613     -56.795
  C     -105.937     -71.186     -59.074
  O     -105.463     -70.171     -58.201
  C     -107.082     -70.640     -59.920
  O     -107.599     -71.681     -60.779
  C     -108.275     -70.153     -59.110
  O     -108.057     -68.871     -58.548
  C     -109.363     -70.153     -60.171
  O     -109.340     -68.946     -60.949
  C     -108.985     -71.377     -61.034
  N     -109.853     -72.520     -60.776
  C     -111.134     -72.439     -61.314
  O     -111.531     -71.475     -61.968
  N     -111.964     -73.493     -61.044
  C     -111.657     -74.575     -60.273
  O     -112.472     -75.450     -60.008
  C     -110.284     -74.614     -59.742
  C     -109.461     -73.596     -60.005
  O     -103.813     -69.429     -56.444
  O     -105.825     -70.843     -55.706
  H     -103.784     -69.290     -55.480
  H     -110.188     -68.918     -61.434
  H     -112.900     -73.447     -61.416
  H     -110.006     -75.463     -59.130
  H     -108.451     -73.593     -59.607
  H     -109.062     -71.129     -62.100
  H     -110.356     -70.224     -59.727
  H     -108.534     -70.887     -58.337
  H     -106.691     -69.834     -60.555
  H     -106.301     -72.034     -58.485
  H     -105.111     -71.526     -59.707
  P     -109.251     -68.178     -57.733
  C     -108.972     -69.870     -55.743
  O     -109.814     -69.287     -56.720
  O     -110.377     -68.074     -58.863
  O     -108.873     -66.884     -57.098
  H     -110.372     -68.829     -59.475
  H     -109.530     -70.581     -55.170
  H     -108.596     -69.106     -55.095
  H     -108.154     -70.363     -56.225

 6  7  8  9  10  11  12  13  14  15  16  27  31  32  33  34  35 0
 6-311+G(2d,p)
 ****
 36  37 0
 6-311+G(2d,p)
 ****
 1  2  3  4  5  17  18  19  20  21  22  23  24  25 0
 3-21G
 ****
 26  28  29  30  38  39  40  41  42  43  44  45 0
 3-21G
 ****


