%nproc=1
%NoSave
%Mem=1900MB
#P OB98/GEN NMR

erre ene a

0 1
  C     -142.175     451.917    -161.930
  O     -142.542     452.984    -162.794
  P     -141.721     454.360    -162.688
  C     -143.537     455.325    -161.107
  O     -142.151     455.062    -161.309
  C     -143.744     456.691    -160.454
  O     -145.170     456.905    -160.244
  C     -143.057     456.861    -159.099
  O     -142.666     458.240    -158.984
  C     -144.174     456.584    -158.106
  O     -143.904     457.136    -156.821
  C     -145.355     457.214    -158.844
  N     -149.508     458.184    -156.020
  C     -148.417     458.930    -156.299
  N     -147.353     458.604    -157.066
  C     -147.486     457.356    -157.552
  C     -148.523     456.468    -157.325
  C     -149.579     456.925    -156.515
  N     -150.691     456.170    -156.233
  N     -148.291     455.275    -157.976
  C     -147.133     455.439    -158.591
  N     -146.622     456.689    -158.383
  O     -142.418     455.270    -163.803
  O     -140.254     454.247    -162.918
  H     -144.645     456.915    -156.229
  H     -141.798     455.424    -164.546
  H     -148.398     459.928    -155.864
  H     -146.635     454.688    -159.191
  H     -145.378     458.300    -158.743
  H     -144.304     455.499    -157.995
  H     -142.190     456.214    -158.951
  H     -143.407     457.464    -161.155
  H     -143.945     454.554    -160.439
  H     -151.468     456.620    -155.759
  H     -150.846     455.312    -156.751
  H     -144.065     455.274    -162.068
  P     -141.349     458.558    -158.132
  C     -142.647     458.614    -155.893
  O     -141.612     458.016    -156.650
  O     -141.386     460.152    -157.969
  O     -140.078     458.105    -158.781
  H     -140.482     460.497    -157.873
  H     -143.093     457.853    -155.242
  H     -143.431     459.041    -156.526
  H     -142.225     459.406    -155.265
  H     -142.807     451.074    -162.116
  H     -142.286     452.228    -160.912
  H     -141.156     451.646    -162.111

 3  4  5  6  7  8  9  10  11  12  22  25  29  30  31  32 0
 6-311+G(2d,p)
 ****
 33  36  37 0
 6-311+G(2d,p)
 ****
 1  2  13  14  15  16  17  18  19  20  21  23  24  26 0
 3-21G
 ****
 27  28  34  35  38  39  40  41  42  43  44  45  46  47  48 0
 3-21G
 ****


