%nproc=1
%NoSave
%Mem=1900MB
#P OB98/GEN NMR

erre ene a

0 1
  C     -206.998     883.556    -165.462
  O     -205.734     882.959    -165.670
  H     -207.339     883.318    -164.449
  H     -207.722     883.165    -166.178
  H     -206.922     884.643    -165.562
  P     -205.054     883.186    -167.105
  C     -202.912     884.214    -166.060
  O     -203.464     883.171    -166.853
  C     -202.902     883.813    -164.586
  O     -202.131     882.591    -164.435
  C     -202.283     884.874    -163.661
  O     -203.021     884.897    -162.431
  C     -200.893     884.324    -163.392
  O     -200.338     884.835    -162.184
  C     -201.181     882.825    -163.371
  N     -196.519     882.092    -161.624
  C     -197.521     882.935    -161.181
  N     -197.237     883.716    -160.113
  N     -198.696     883.020    -161.744
  C     -198.854     882.168    -162.789
  C     -197.941     881.291    -163.326
  C     -196.632     881.224    -162.707
  O     -195.699     880.517    -163.063
  N     -198.469     880.630    -164.408
  C     -199.698     881.102    -164.517
  N     -199.977     882.037    -163.559
  O     -205.361     884.724    -167.425
  O     -205.525     882.278    -168.191
  H     -199.618     884.232    -161.908
  H     -205.436     884.870    -168.387
  H     -195.630     882.081    -161.158
  H     -200.417     880.807    -165.273
  H     -201.634     882.499    -162.429
  H     -200.219     884.582    -164.216
  H     -196.364     883.683    -159.610
  H     -202.260     885.874    -164.096
  H     -197.963     884.334    -159.768
  H     -203.929     883.576    -164.281
  H     -203.516     885.118    -166.190
  H     -201.891     884.417    -166.396
  P     -204.047     886.107    -162.208
  C     -205.929     884.672    -161.142
  O     -205.011     885.743    -160.976
  O     -205.013     885.994    -163.482
  O     -203.397     887.448    -162.137
  H     -204.830     886.727    -164.095
  H     -206.499     884.548    -160.245
  H     -205.391     883.771    -161.350
  H     -206.588     884.890    -161.956

 6  7  8  9  10  11  12  13  14  15  26  29  33  34 0
 6-311+G(2d,p)
 ****
 36  38  39  40  41 0
 6-311+G(2d,p)
 ****
 1  2  3  4  5  16  17  18  19  20  21  22  23  24  25 0
 3-21G
 ****
 27  28  30  31  32  35  37  42  43  44  45  46  47 0
 3-21G
 ****
 48  49 0
 3-21G
 ****


