%nproc=1
%NoSave
%Mem=1900MB
#P OB98/GEN NMR

erre ene a

0 1
  C      -37.999     -78.015    -346.020
  O      -36.754     -78.375    -345.406
  P      -35.470     -77.459    -345.744
  C      -35.294     -78.186    -348.256
  O      -35.564     -77.155    -347.323
  C      -34.557     -77.642    -349.484
  O      -35.441     -76.735    -350.219
  C      -33.273     -76.875    -349.169
  O      -32.330     -77.179    -350.212
  C      -33.697     -75.416    -349.251
  O      -32.591     -74.547    -349.483
  C      -34.717     -75.491    -350.394
  N      -35.615     -74.344    -350.429
  C      -36.050     -73.921    -351.682
  O      -35.654     -74.424    -352.733
  N      -36.926     -72.867    -351.693
  C      -37.333     -72.157    -350.591
  O      -38.125     -71.218    -350.655
  C      -36.750     -72.572    -349.304
  C      -35.930     -73.627    -349.285
  O      -34.285     -78.519    -345.609
  O      -35.364     -76.258    -344.859
  H      -34.517     -79.409    -345.925
  H      -32.926     -73.631    -349.538
  H      -37.281     -72.566    -352.584
  H      -37.006     -72.000    -348.426
  H      -35.463     -73.953    -348.361
  H      -34.195     -75.557    -351.362
  H      -34.184     -75.117    -348.322
  H      -32.837     -77.150    -348.200
  H      -34.341     -78.486    -350.154
  H      -36.232     -78.639    -348.585
  H      -34.713     -78.973    -347.764
  P      -31.291     -78.394    -349.976
  C      -29.414     -77.002    -348.791
  O      -30.399     -78.003    -348.699
  O      -30.287     -78.140    -351.209
  O      -31.898     -79.763    -349.991
  H      -30.011     -77.212    -351.296
  H      -29.090     -76.724    -347.779
  H      -29.803     -76.099    -349.286
  H      -28.548     -77.373    -349.344
  H      -38.760     -78.701    -345.712
  H      -37.896     -78.052    -347.084
  H      -38.270     -77.024    -345.722

 3  4  5  6  7  8  9  10  11  12  13  24  28  29  30  31  32 0
 6-311+G(2d,p)
 ****
 33  34 0
 6-311+G(2d,p)
 ****
 1  2  14  15  16  17  18  19  20  21  22  23  25  26  27 0
 3-21G
 ****
 35  36  37  38  39  40  41  42  43  44  45 0
 3-21G
 ****


