%nproc=1
%NoSave
%Mem=1900MB
#P OB98/GEN NMR

erre ene a

0 1
  C     -249.498     452.109    -688.126
  O     -248.424     452.806    -688.732
  P     -246.936     452.469    -688.234
  C     -246.509     450.625    -690.027
  O     -246.655     450.940    -688.648
  C     -245.268     449.763    -690.239
  O     -244.068     450.511    -689.931
  C     -245.206     448.519    -689.361
  O     -245.994     447.462    -689.876
  C     -243.729     448.183    -689.441
  O     -243.454     447.485    -690.672
  C     -243.077     449.569    -689.452
  N     -239.162     449.526    -686.243
  C     -239.212     449.177    -687.583
  N     -238.074     448.692    -688.125
  N     -240.282     449.293    -688.324
  C     -241.356     449.782    -687.639
  C     -241.422     450.167    -686.319
  C     -240.232     450.016    -685.518
  O     -240.133     450.256    -684.312
  N     -242.668     450.622    -685.998
  C     -243.360     450.521    -687.116
  N     -242.616     449.974    -688.138
  O     -247.091     452.401    -686.642
  O     -245.892     453.455    -688.654
  H     -242.517     447.216    -690.642
  H     -246.216     452.463    -686.216
  H     -238.318     449.402    -685.716
  H     -244.396     450.814    -687.236
  H     -242.228     449.613    -690.139
  H     -243.400     447.531    -688.627
  H     -237.234     448.513    -687.593
  H     -245.474     448.763    -688.328
  H     -238.104     448.371    -689.083
  H     -245.227     449.490    -691.303
  H     -246.418     451.553    -690.597
  H     -247.405     450.099    -690.368
  P     -246.270     446.225    -688.897
  C     -248.126     447.574    -687.667
  O     -246.900     446.866    -687.562
  O     -244.798     445.784    -688.440
  O     -247.028     445.098    -689.517
  H     -244.785     444.840    -688.202
  H     -248.536     447.707    -686.661
  H     -248.852     447.016    -688.275
  H     -247.947     448.557    -688.105
  H     -250.422     452.435    -688.555
  H     -249.504     452.307    -687.074
  H     -249.379     451.058    -688.290

 3  4  5  6  7  8  9  10  11  12  23  26  30  31 0
 6-311+G(2d,p)
 ****
 33  35  36  37  38 0
 6-311+G(2d,p)
 ****
 1  2  13  14  15  16  17  18  19  20  21  22  24  25 0
 3-21G
 ****
 27  28  29  32  34  39  40  41  42  43  44  45  46  47  48  49 0
 3-21G
 ****


