%nproc=1
%NoSave
%Mem=1900MB
#P OB98/GEN NMR

erre ene a

0 1
  C      504.707    -168.382     -50.933
  O      505.689    -168.316     -51.943
  H      503.801    -168.821     -51.355
  H      504.474    -167.375     -50.576
  H      505.039    -169.001     -50.097
  P      507.205    -168.016     -51.527
  C      507.876    -170.449     -52.065
  O      507.862    -169.413     -51.094
  C      508.433    -171.747     -51.468
  O      507.676    -172.081     -50.277
  C      508.280    -172.923     -52.438
  O      509.281    -173.917     -52.239
  C      506.928    -173.499     -52.053
  O      506.773    -174.867     -52.433
  C      506.919    -173.273     -50.543
  N      502.423    -175.518     -49.697
  C      503.475    -175.940     -50.487
  N      503.306    -177.118     -51.132
  N      504.578    -175.260     -50.646
  C      504.580    -174.071     -49.999
  C      503.590    -173.533     -49.208
  C      502.386    -174.312     -49.011
  O      501.416    -173.974     -48.342
  N      503.948    -172.298     -48.728
  C      505.148    -172.086     -49.231
  N      505.585    -173.145     -49.989
  O      507.067    -167.251     -50.127
  O      508.000    -167.216     -52.514
  H      505.930    -175.180     -52.057
  H      507.865    -166.722     -49.950
  H      501.607    -176.093     -49.585
  H      505.745    -171.197     -49.064
  H      507.412    -174.104     -50.025
  H      506.152    -172.932     -52.573
  H      502.404    -177.567     -51.190
  H      508.290    -172.612     -53.480
  H      503.913    -177.284     -51.938
  H      509.472    -171.599     -51.152
  H      508.504    -170.105     -52.890
  H      506.873    -170.608     -52.466
  P      510.537    -173.948     -53.232
  C      512.280    -173.084     -51.439
  O      511.671    -172.958     -52.704
  O      509.993    -173.238     -54.554
  O      511.067    -175.320     -53.511
  H      509.976    -173.869     -55.298
  H      513.006    -172.308     -51.314
  H      512.761    -174.037     -51.368
  H      511.535    -173.003     -50.675

 6  7  8  9  10  11  12  13  14  15  26  29  33  34 0
 6-311+G(2d,p)
 ****
 36  38  39  40  41 0
 6-311+G(2d,p)
 ****
 1  2  3  4  5  16  17  18  19  20  21  22  23  24  25 0
 3-21G
 ****
 27  28  30  31  32  35  37  42  43  44  45  46  47 0
 3-21G
 ****
 48  49 0
 3-21G
 ****


