%nproc=1
%NoSave
%Mem=1900MB
#P OB98/GEN NMR

erre ene a

0 1
  C        0.430      -4.291     -25.945
  O        0.723      -5.534     -25.342
  H        0.485      -4.406     -27.030
  H        1.166      -3.545     -25.634
  H       -0.574      -3.960     -25.674
  P        0.610      -5.609     -23.744
  C       -1.601      -4.633     -22.804
  O       -0.956      -5.746     -23.406
  C       -3.002      -5.013     -22.330
  O       -3.805      -5.394     -23.487
  C       -3.038      -6.188     -21.341
  O       -4.099      -5.951     -20.408
  C       -3.436      -7.361     -22.223
  O       -4.003      -8.437     -21.480
  C       -4.407      -6.665     -23.175
  N       -7.271     -10.329     -25.091
  C       -7.305      -9.720     -23.852
  N       -8.247     -10.151     -22.986
  N       -6.486      -8.768     -23.491
  C       -5.616      -8.412     -24.468
  C       -5.477      -8.939     -25.729
  C       -6.374     -10.011     -26.106
  O       -6.380     -10.603     -27.181
  N       -4.456      -8.324     -26.411
  C       -3.983      -7.429     -25.564
  N       -4.653      -7.445     -24.372
  O        0.963      -4.114     -23.298
  O        1.495      -6.613     -23.086
  H       -4.465      -9.027     -22.111
  H        1.914      -4.038     -23.094
  H       -7.917     -11.067     -25.313
  H       -3.161      -6.754     -25.760
  H       -5.383      -6.478     -22.711
  H       -2.561      -7.742     -22.764
  H       -8.941     -10.846     -23.211
  H       -2.100      -6.354     -20.802
  H       -8.315      -9.687     -22.089
  H       -3.477      -4.125     -21.897
  H       -1.678      -3.826     -23.541
  H       -1.002      -4.284     -21.957
  P       -3.820      -4.950     -19.190
  C       -3.671      -2.355     -19.194
  O       -4.397      -3.509     -19.587
  O       -2.236      -4.730     -19.266
  O       -4.241      -5.474     -17.857
  H       -1.887      -4.521     -18.380
  H       -4.184      -1.479     -19.532
  H       -2.693      -2.385     -19.626
  H       -3.589      -2.331     -18.127

 6  7  8  9  10  11  12  13  14  15  26  29  33  34 0
 6-311+G(2d,p)
 ****
 36  38  39  40  41 0
 6-311+G(2d,p)
 ****
 1  2  3  4  5  16  17  18  19  20  21  22  23  24  25 0
 3-21G
 ****
 27  28  30  31  32  35  37  42  43  44  45  46  47 0
 3-21G
 ****
 48  49 0
 3-21G
 ****


