%nproc=1
%NoSave
%Mem=1900MB
#P OB98/GEN NMR

erre ene a

0 1
  C       69.442      43.801    -122.551
  O       70.184      43.722    -123.779
  P       69.366      43.773    -125.157
  C       69.279      41.204    -125.557
  O       68.553      42.399    -125.300
  C       68.615      40.014    -124.857
  O       67.309      39.729    -125.416
  C       69.408      38.717    -124.962
  O       70.432      38.645    -123.984
  C       68.328      37.688    -124.659
  O       68.120      37.604    -123.229
  C       67.097      38.298    -125.345
  N       65.094      34.491    -128.006
  C       65.122      34.697    -126.641
  N       64.521      33.765    -125.875
  N       65.688      35.740    -126.081
  C       66.236      36.600    -126.975
  C       66.279      36.496    -128.342
  C       65.653      35.334    -128.950
  O       65.618      35.085    -130.157
  N       66.924      37.560    -128.909
  C       67.258      38.320    -127.885
  N       66.882      37.769    -126.683
  O       70.519      43.625    -126.258
  O       68.570      45.023    -125.351
  H       67.408      36.951    -123.094
  H       70.240      44.060    -127.085
  H       64.652      33.667    -128.387
  H       67.781      39.267    -127.957
  H       66.173      38.127    -124.781
  H       68.600      36.688    -124.996
  H       64.024      32.970    -126.241
  H       69.794      38.573    -125.981
  H       64.500      33.925    -124.871
  H       68.487      40.271    -123.794
  H       70.314      41.308    -125.212
  H       69.344      41.050    -126.639
  P       71.909      39.122    -124.404
  C       72.513      36.777    -125.335
  O       72.366      38.154    -125.598
  O       72.803      38.658    -123.162
  O       72.035      40.594    -124.661
  H       73.552      39.279    -123.038
  H       72.661      36.251    -126.287
  H       71.611      36.373    -124.857
  H       73.382      36.603    -124.694
  H       70.118      43.755    -121.722
  H       68.754      42.983    -122.497
  H       68.902      44.724    -122.520

 3  4  5  6  7  8  9  10  11  12  23  26  30  31 0
 6-311+G(2d,p)
 ****
 33  35  36  37  38 0
 6-311+G(2d,p)
 ****
 1  2  13  14  15  16  17  18  19  20  21  22  24  25 0
 3-21G
 ****
 27  28  29  32  34  39  40  41  42  43  44  45  46  47  48  49 0
 3-21G
 ****


