%nproc=1
%NoSave
%Mem=1900MB
#P OB98/GEN NMR

erre ene a

0 1
  C     -359.110      65.293     287.559
  O     -360.157      66.244     287.506
  H     -359.514      64.311     287.298
  H     -358.697      65.243     288.572
  H     -358.322      65.548     286.844
  P     -359.816      67.789     287.753
  C     -362.258      68.131     288.492
  O     -361.202      68.592     287.656
  C     -363.592      68.186     287.753
  O     -363.520      67.333     286.587
  C     -364.785      67.725     288.604
  O     -365.912      68.545     288.288
  C     -365.031      66.309     288.120
  O     -366.385      65.899     288.306
  C     -364.617      66.401     286.652
  N     -366.310      61.832     285.301
  C     -367.004      62.950     285.720
  N     -368.345      62.837     285.828
  N     -366.427      64.088     286.026
  C     -365.082      64.068     285.860
  C     -364.284      63.030     285.451
  C     -364.931      61.773     285.134
  O     -364.370      60.744     284.769
  N     -362.957      63.392     285.431
  C     -362.959      64.651     285.843
  N     -364.222      65.106     286.122
  O     -358.717      68.344     286.904
  O     -359.454      67.865     289.308
  H     -366.500      65.054     287.813
  H     -358.488      67.880     289.439
  H     -366.798      60.979     285.091
  H     -362.080      65.270     285.953
  H     -365.429      66.775     286.012
  H     -364.382      65.611     288.667
  H     -368.855      61.998     285.598
  H     -364.582      67.769     289.679
  H     -368.876      63.647     286.113
  H     -363.747      69.213     287.390
  H     -362.295      68.769     289.381
  H     -362.044      67.100     288.806
  P     -366.997      68.842     289.429
  C     -368.993      68.695     287.800
  O     -368.285      69.504     288.734
  O     -366.492      69.549     290.637
  O     -367.528      67.370     289.799
  H     -367.802      67.359     290.737
  H     -369.824      69.245     287.410
  H     -369.348      67.812     288.290
  H     -368.339      68.420     286.999

 6  7  8  9  10  11  12  13  14  15  26  29  33  34 0
 6-311+G(2d,p)
 ****
 36  38  39  40  41 0
 6-311+G(2d,p)
 ****
 1  2  3  4  5  16  17  18  19  20  21  22  23  24  25 0
 3-21G
 ****
 27  28  30  31  32  35  37  42  43  44  45  46  47 0
 3-21G
 ****
 48  49 0
 3-21G
 ****


