%nproc=1
%NoSave
%Mem=1900MB
#P OB98/GEN NMR

erre ene a

0 1
  C      301.838    1077.078     488.996
  O      300.475    1076.734     488.682
  P      299.326    1077.134     489.716
  C      299.236    1074.817     490.917
  O      299.407    1076.221     491.038
  C      298.620    1074.212     492.203
  O      297.325    1074.847     492.482
  C      298.367    1072.694     492.130
  O      298.544    1072.175     493.453
  C      296.893    1072.621     491.745
  O      296.294    1071.379     492.049
  C      296.334    1073.802     492.567
  N      295.024    1074.277     492.109
  C      293.945    1073.409     492.259
  O      294.022    1072.256     492.672
  N      292.725    1073.931     491.863
  C      292.500    1075.159     491.325
  O      291.401    1075.547     490.964
  C      293.686    1076.019     491.161
  C      294.875    1075.538     491.567
  O      298.011    1076.562     488.990
  O      299.165    1078.595     489.980
  H      295.326    1071.494     491.969
  H      297.303    1077.213     489.019
  H      291.929    1073.332     491.975
  H      293.554    1077.007     490.748
  H      295.769    1076.160     491.481
  H      296.271    1073.510     493.616
  H      296.797    1072.806     490.666
  H      299.026    1072.177     491.408
  H      299.280    1074.456     493.042
  H      300.195    1074.338     490.725
  H      298.578    1074.607     490.056
  P      299.955    1071.487     493.820
  C      299.349    1069.177     492.732
  O      300.194    1070.321     492.750
  O      299.565    1070.685     495.150
  O      301.090    1072.452     494.031
  H      298.703    1070.217     495.075
  H      298.312    1069.460     492.895
  H      299.666    1068.489     493.508
  H      299.449    1068.686     491.764
  H      302.481    1076.743     488.209
  H      302.123    1076.607     489.913
  H      301.923    1078.140     489.099

 3  4  5  6  7  8  9  10  11  12  13  23  28  29  30  31  32 0
 6-311+G(2d,p)
 ****
 33  34 0
 6-311+G(2d,p)
 ****
 1  2  14  15  16  17  18  19  20  21  22  24  25  26 0
 3-21G
 ****
 27  35  36  37  38  39  40  41  42  43  44  45 0
 3-21G
 ****


