%nproc=1
%NoSave
%Mem=1900MB
#P OB98/GEN NMR

erre ene a

0 1
  C       59.983     -10.114    -199.663
  O       60.981     -10.101    -198.665
  H       59.260      -9.322    -199.449
  H       59.458     -11.073    -199.656
  H       60.421      -9.936    -200.650
  P       62.237     -11.083    -198.862
  C       62.568     -13.654    -198.735
  O       61.652     -12.578    -198.880
  C       61.960     -14.949    -199.282
  O       60.942     -15.416    -198.356
  C       61.305     -14.786    -200.658
  O       61.567     -15.962    -201.431
  C       59.821     -14.710    -200.343
  O       59.004     -15.118    -201.441
  C       59.721     -15.600    -199.099
  N       58.546     -15.273    -198.296
  C       57.468     -16.162    -198.367
  O       57.536     -17.163    -199.088
  N       56.321     -15.873    -197.671
  C       56.224     -14.751    -197.033
  N       55.050     -14.506    -196.385
  C       57.311     -13.748    -196.982
  C       58.433     -14.077    -197.625
  O       62.995     -11.002    -197.456
  O       63.131     -10.753    -200.013
  H       59.325     -15.992    -201.755
  H       63.958     -11.113    -197.566
  H       57.172     -12.814    -196.457
  H       59.280     -13.401    -197.654
  H       59.665     -16.661    -199.387
  H       59.555     -13.676    -200.093
  H       61.658     -13.907    -201.202
  H       62.742     -15.715    -199.309
  H       54.325     -15.210    -196.455
  H       62.792     -13.791    -197.671
  H       54.849     -13.648    -195.893
  H       63.498     -13.416    -199.263
  P       63.036     -16.095    -202.062
  C       64.271     -15.268    -204.193
  O       63.076     -15.244    -203.421
  O       63.084     -17.615    -202.566
  O       64.136     -15.801    -201.094
  H       63.673     -18.140    -201.990
  H       64.146     -14.658    -205.063
  H       64.484     -16.274    -204.490
  H       65.082     -14.890    -203.606

 6  7  8  9  10  11  12  13  14  15  16  26  30  31  32  33  35 0
 6-311+G(2d,p)
 ****
 37  38 0
 6-311+G(2d,p)
 ****
 1  2  3  4  5  17  18  19  20  21  22  23  24  25 0
 3-21G
 ****
 27  28  29  34  36  39  40  41  42  43  44  45  46 0
 3-21G
 ****


