%nproc=1
%NoSave
%Mem=1900MB
#P OB98/GEN NMR

erre ene a

0 1
  C     -899.330    -897.178    -897.440
  O     -898.160    -897.848    -897.850
  H     -900.000    -897.858    -896.900
  H     -899.870    -896.778    -898.310
  H     -899.090    -896.328    -896.750
  P     -896.950    -896.968    -898.340
  C     -895.350    -897.108    -896.290
  O     -896.250    -896.298    -897.020
  C     -894.920    -896.398    -895.000
  O     -894.190    -895.168    -895.350
  C     -896.110    -895.968    -894.080
  O     -895.730    -896.188    -892.690
  C     -896.270    -894.508    -894.380
  O     -896.890    -893.788    -893.300
  C     -894.820    -894.098    -894.650
  N     -893.390    -889.258    -894.550
  C     -893.230    -890.258    -893.590
  N     -892.600    -889.898    -892.470
  N     -893.670    -891.468    -893.740
  C     -894.220    -891.678    -894.950
  C     -894.470    -890.788    -895.990
  C     -894.030    -889.428    -895.780
  O     -894.160    -888.458    -896.570
  N     -895.130    -891.378    -897.040
  C     -895.310    -892.608    -896.680
  N     -894.760    -892.888    -895.420
  O     -897.660    -895.708    -899.060
  O     -896.000    -897.618    -899.300
  H     -897.140    -892.908    -893.610
  H     -897.460    -895.668    -900.000
  H     -893.060    -888.298    -894.360
  H     -895.830    -893.398    -897.270
  H     -894.270    -893.918    -893.710
  H     -896.920    -894.358    -895.230
  H     -892.170    -888.978    -892.310
  H     -897.020    -896.598    -894.300
  H     -892.390    -890.658    -891.780
  H     -894.200    -897.038    -894.420
  H     -894.460    -897.318    -896.890
  H     -895.850    -898.088    -896.030
  P     -896.450    -897.368    -891.900
  C     -894.510    -899.018    -891.980
  O     -895.880    -898.798    -892.310
  O     -897.990    -897.388    -892.540
  O     -896.560    -897.108    -890.420
  H     -898.610    -896.938    -891.950
  H     -894.221    -900.000    -892.293
  H     -894.379    -898.928    -890.922
  H     -893.902    -898.292    -892.478

 6  7  8  9  10  11  12  13  14  15  26  29  33  34 0
 6-311+G(2d,p)
 ****
 36  38  39  40  41 0
 6-311+G(2d,p)
 ****
 1  2  3  4  5  16  17  18  19  20  21  22  23  24  25 0
 3-21G
 ****
 27  28  30  31  32  35  37  42  43  44  45  46  47 0
 3-21G
 ****
 48  49 0
 3-21G
 ****


