%nproc=1
%NoSave
%Mem=1900MB
#P OB98/GEN NMR

erre ene a

0 1
  C      486.277      28.450     -66.056
  O      487.008      27.229     -66.158
  P      488.440      27.072     -65.451
  C      488.828      24.581     -65.014
  O      489.094      25.670     -65.892
  C      487.443      23.951     -65.226
  O      487.179      23.733     -66.633
  C      487.232      22.611     -64.514
  O      485.849      22.578     -64.144
  C      487.518      21.610     -65.620
  O      486.987      20.324     -65.345
  C      486.915      22.335     -66.830
  N      487.461      21.851     -68.096
  C      486.856      20.730     -68.660
  O      485.942      20.154     -68.070
  N      487.328      20.254     -69.857
  C      488.379      20.794     -70.394
  N      488.820      20.261     -71.568
  C      489.107      21.927     -69.787
  C      488.588      22.404     -68.657
  O      488.439      27.319     -63.977
  O      489.358      28.155     -66.201
  H      486.008      20.377     -65.390
  H      490.042      28.475     -65.584
  H      489.995      22.327     -70.254
  H      489.044      23.239     -68.135
  H      485.826      22.203     -66.854
  H      488.604      21.501     -65.746
  H      487.871      22.474     -63.642
  H      486.699      24.681     -64.871
  H      488.310      19.467     -71.936
  H      488.905      24.937     -63.983
  H      489.686      20.531     -72.004
  H      489.605      23.820     -65.151
  P      485.353      21.913     -62.775
  C      484.083      23.831     -61.664
  O      483.970      22.624     -62.389
  O      486.369      21.890     -61.684
  O      484.902      20.427     -63.181
  H      484.853      19.876     -62.377
  H      483.108      24.325     -61.642
  H      484.809      24.502     -62.126
  H      484.394      23.618     -60.634
  H      485.354      28.359     -66.590
  H      486.854      29.247     -66.475
  H      486.074      28.659     -65.026

 3  4  5  6  7  8  9  10  11  12  13  23  27  28  29  30  32 0
 6-311+G(2d,p)
 ****
 34  35 0
 6-311+G(2d,p)
 ****
 1  2  14  15  16  17  18  19  20  21  22  24  25  26 0
 3-21G
 ****
 31  33  36  37  38  39  40  41  42  43  44  45  46 0
 3-21G
 ****


