%nproc=1
%NoSave
%Mem=1900MB
#P OB98/GEN NMR

erre ene a

0 1
  C     -163.647    -245.750    -378.265
  O     -164.426    -245.607    -379.435
  H     -162.871    -244.980    -378.268
  H     -163.167    -246.731    -378.235
  H     -164.269    -245.612    -377.376
  P     -165.568    -246.693    -379.727
  C     -167.375    -245.381    -378.423
  O     -166.626    -246.583    -378.528
  C     -168.817    -245.593    -378.902
  O     -169.465    -246.568    -378.036
  C     -169.676    -244.316    -378.874
  O     -170.649    -244.432    -379.918
  C     -170.336    -244.429    -377.514
  O     -171.419    -243.544    -377.390
  C     -170.634    -245.933    -377.476
  N     -170.929    -246.412    -376.134
  C     -172.279    -246.628    -375.840
  O     -173.143    -246.403    -376.684
  N     -172.614    -247.066    -374.583
  C     -171.693    -247.204    -373.681
  N     -172.096    -247.628    -372.451
  C     -170.264    -246.930    -373.938
  C     -169.956    -246.546    -375.173
  O     -165.089    -248.077    -380.017
  O     -166.371    -246.083    -380.973
  H     -171.141    -242.618    -377.567
  H     -166.135    -246.570    -381.785
  H     -169.536    -247.046    -373.145
  H     -168.933    -246.317    -375.457
  H     -171.485    -246.176    -378.130
  H     -169.626    -244.170    -376.719
  H     -169.087    -243.403    -379.004
  H     -168.792    -246.029    -379.908
  H     -173.087    -247.795    -372.318
  H     -166.881    -244.628    -379.043
  H     -171.473    -247.752    -371.667
  H     -167.383    -245.031    -377.384
  P     -170.403    -243.873    -381.403
  C     -170.373    -246.044    -382.797
  O     -169.609    -244.970    -382.257
  O     -169.798    -242.509    -381.447
  O     -171.857    -243.856    -382.086
  H     -171.898    -243.129    -382.735
  H     -169.728    -246.702    -383.342
  H     -171.122    -245.654    -383.454
  H     -170.843    -246.583    -382.001

 6  7  8  9  10  11  12  13  14  15  16  26  30  31  32  33  35 0
 6-311+G(2d,p)
 ****
 37  38 0
 6-311+G(2d,p)
 ****
 1  2  3  4  5  17  18  19  20  21  22  23  24  25 0
 3-21G
 ****
 27  28  29  34  36  39  40  41  42  43  44  45  46 0
 3-21G
 ****


