%nproc=1
%NoSave
%Mem=1900MB
#P OB98/GEN NMR

erre ene a

0 1
  C      197.205      96.509     488.141
  O      196.149      96.741     489.047
  P      195.749      98.236     489.466
  C      193.747      97.270     490.756
  O      194.854      98.167     490.790
  C      193.464      96.714     492.154
  O      193.236      97.784     493.097
  C      192.217      95.844     492.234
  O      192.409      94.583     491.629
  C      191.983      95.818     493.741
  O      192.835      94.849     494.368
  C      192.396      97.245     494.147
  N      191.248      98.106     494.403
  C      190.414      97.713     495.454
  O      190.615      96.659     496.054
  N      189.362      98.530     495.794
  C      189.097      99.572     495.066
  N      188.078     100.378     495.483
  C      189.854      99.931     493.853
  C      190.925      99.170     493.594
  O      195.179      99.072     488.365
  O      197.119      98.866     490.000
  H      197.265      99.728     489.561
  H      192.669      93.999     493.908
  H      189.556     100.770     493.243
  H      191.556      99.369     492.735
  H      193.022      97.214     495.044
  H      190.950      95.551     493.995
  H      191.376      96.361     491.743
  H      194.349      96.149     492.480
  H      187.591     100.112     496.331
  H      193.979      96.449     490.075
  H      188.005     101.350     495.201
  H      192.868      97.804     490.368
  P      191.278      94.086     490.601
  C      193.116      92.857     489.250
  O      191.844      92.784     489.861
  O      191.303      95.216     489.464
  O      189.917      93.944     491.196
  H      190.393      95.374     489.142
  H      193.494      91.841     489.107
  H      193.820      93.416     489.871
  H      193.024      93.345     488.272
  H      197.319      95.456     487.988
  H      198.112      96.912     488.540
  H      196.985      96.983     487.208

 3  4  5  6  7  8  9  10  11  12  13  24  27  28  29  30  32 0
 6-311+G(2d,p)
 ****
 34  35 0
 6-311+G(2d,p)
 ****
 1  2  14  15  16  17  18  19  20  21  22  23  25  26 0
 3-21G
 ****
 31  33  36  37  38  39  40  41  42  43  44  45  46 0
 3-21G
 ****


