%nproc=1
%NoSave
%Mem=1900MB
#P OB98/GEN NMR

erre ene a

0 1
  C      695.658    -668.180    -641.542
  O      695.066    -668.807    -640.418
  H      695.773    -667.116    -641.320
  H      695.018    -668.290    -642.418
  H      696.642    -668.610    -641.737
  P      694.770    -670.381    -640.552
  C      696.264    -672.482    -640.610
  O      696.226    -671.061    -640.576
  C      697.656    -672.990    -640.247
  O      698.625    -672.426    -641.168
  C      698.085    -672.598    -638.821
  O      698.820    -673.672    -638.237
  C      699.020    -671.411    -639.044
  O      699.949    -671.251    -637.988
  C      699.639    -671.766    -640.397
  N      702.720    -667.696    -640.064
  C      702.557    -668.788    -639.274
  N      701.738    -669.833    -639.452
  C      701.037    -669.709    -640.591
  C      701.085    -668.662    -641.502
  C      701.978    -667.603    -641.187
  N      702.120    -666.484    -641.973
  N      700.197    -668.878    -642.537
  C      699.633    -670.034    -642.263
  N      700.104    -670.580    -641.100
  O      693.856    -670.779    -641.663
  O      694.244    -670.742    -639.075
  H      700.627    -670.588    -638.258
  H      694.797    -670.319    -638.400
  H      703.187    -668.819    -638.381
  H      698.883    -670.517    -642.877
  H      700.503    -672.432    -640.295
  H      698.431    -670.492    -639.131
  H      697.236    -672.334    -638.190
  H      697.689    -674.078    -640.372
  H      696.012    -672.838    -641.621
  H      702.785    -665.778    -641.694
  H      701.596    -666.406    -642.842
  H      695.513    -672.858    -639.911
  P      698.025    -674.734    -637.322
  C      695.696    -675.492    -638.127
  O      697.110    -675.630    -638.286
  O      697.347    -674.183    -636.126
  O      699.182    -675.753    -636.914
  H      699.039    -676.046    -635.996
  H      695.195    -676.135    -638.820
  H      695.413    -674.477    -638.314
  H      695.421    -675.761    -637.128

 6  7  8  9  10  11  12  13  14  15  25  28  32  33  34  35 0
 6-311+G(2d,p)
 ****
 36  39  40 0
 6-311+G(2d,p)
 ****
 1  2  3  4  5  16  17  18  19  20  21  22  23  24 0
 3-21G
 ****
 26  27  29  30  31  37  38  41  42  43  44  45  46  47 0
 3-21G
 ****
 48 0
 3-21G
 ****


