%nproc=1
%NoSave
%Mem=1900MB
#P OB98/GEN NMR

erre ene a

0 1
  C       14.700      82.081    -167.722
  O       13.649      81.176    -167.459
  H       15.315      82.173    -166.822
  H       14.304      83.066    -167.978
  H       15.330      81.709    -168.536
  P       12.558      80.910    -168.601
  C       10.951      80.360    -166.657
  O       11.421      79.984    -167.949
  C       10.193      79.194    -166.013
  O        8.988      78.970    -166.786
  C       11.009      77.893    -166.006
  O       11.105      77.300    -164.714
  C       10.366      77.070    -167.115
  O       10.504      75.672    -166.968
  C        8.919      77.573    -167.124
  N        8.235      77.385    -168.402
  C        7.368      76.302    -168.508
  O        7.114      75.506    -167.608
  N        6.761      76.150    -169.729
  C        6.936      76.945    -170.820
  O        6.359      76.762    -171.885
  C        7.881      78.060    -170.652
  C        8.479      78.225    -169.470
  O       13.092      80.418    -169.903
  O       11.819      82.321    -168.766
  H        9.965      75.400    -166.197
  H       12.148      82.770    -169.567
  H        6.122      75.374    -169.814
  H        8.053      78.705    -171.502
  H        9.181      79.039    -169.310
  H        8.332      77.066    -166.358
  H       10.845      77.340    -168.064
  H       12.055      78.088    -166.271
  H        9.888      79.487    -165.003
  H       10.290      81.222    -166.778
  H       11.800      80.645    -166.026
  P       11.801      77.981    -163.449
  C       12.805      76.095    -161.930
  O       11.716      76.958    -162.222
  O       11.407      79.394    -163.180
  O       13.366      77.977    -163.841
  H       13.756      78.777    -163.434
  H       12.563      75.490    -161.081
  H       13.675      76.679    -161.715
  H       12.997      75.466    -162.774

 6  7  8  9  10  11  12  13  14  15  16  26  31  32  33  34  35 0
 6-311+G(2d,p)
 ****
 36  37 0
 6-311+G(2d,p)
 ****
 1  2  3  4  5  17  18  19  20  21  22  23  24  25 0
 3-21G
 ****
 27  28  29  30  38  39  40  41  42  43  44  45 0
 3-21G
 ****


