%nproc=1
%NoSave
%Mem=1900MB
#P OB98/GEN NMR

erre ene a

0 1
  C       11.991    -138.397      63.101
  O       11.930    -139.813      63.108
  P       12.266    -140.639      64.441
  C       14.411    -141.567      65.514
  O       13.863    -140.628      64.596
  C       15.708    -141.038      66.122
  O       15.484    -139.690      66.601
  C       16.209    -141.864      67.301
  O       17.641    -141.892      67.270
  C       15.773    -141.080      68.524
  O       16.625    -141.353      69.650
  C       15.833    -139.642      67.997
  N       14.407    -137.660      72.515
  C       15.409    -138.500      72.179
  N       15.716    -139.007      70.964
  C       14.889    -138.512      70.028
  C       13.825    -137.644      70.216
  C       13.590    -137.213      71.535
  N       12.572    -136.344      71.871
  N       13.186    -137.385      69.019
  C       13.867    -138.066      68.125
  N       14.911    -138.757      68.682
  O       11.646    -141.991      64.518
  O       11.779    -139.693      65.632
  H       16.217    -140.925      70.429
  H       11.380    -140.225      66.349
  H       16.054    -138.813      72.999
  H       13.641    -138.106      67.069
  H       16.845    -139.223      68.081
  H       14.751    -141.365      68.799
  H       15.817    -142.886      67.301
  H       16.469    -140.984      65.330
  H       14.619    -142.496      64.972
  H       12.555    -135.997      72.817
  H       12.077    -135.877      71.123
  H       13.676    -141.781      66.300
  P       18.323    -143.312      67.611
  C       17.892    -144.933      69.601
  O       17.918    -143.604      69.132
  O       19.778    -143.328      67.276
  O       17.425    -144.308      66.733
  H       16.533    -143.932      66.564
  H       17.556    -144.932      70.643
  H       18.896    -145.367      69.563
  H       17.204    -145.537      69.007
  H       11.735    -138.034      62.128
  H       12.983    -138.081      63.350
  H       11.301    -138.007      63.820

 3  4  5  6  7  8  9  10  11  12  22  25  29  30  31  32 0
 6-311+G(2d,p)
 ****
 33  36  37 0
 6-311+G(2d,p)
 ****
 1  2  13  14  15  16  17  18  19  20  21  23  24  26 0
 3-21G
 ****
 27  28  34  35  38  39  40  41  42  43  44  45  46  47  48 0
 3-21G
 ****


