%nproc=1
%NoSave
%Mem=1900MB
#P OB98/GEN NMR

erre ene a

0 1
  C      241.296     289.392      91.844
  O      240.489     288.946      92.921
  P      238.904     288.850      92.696
  C      237.372     287.436      91.152
  O      238.649     288.026      91.343
  C      236.989     287.429      89.671
  O      236.652     288.778      89.249
  C      238.108     286.933      88.749
  O      237.534     286.236      87.634
  C      238.720     288.213      88.216
  O      239.396     287.992      86.977
  C      237.479     289.103      88.116
  N      238.920     292.983      85.219
  C      238.415     291.753      84.848
  N      238.371     291.495      83.523
  N      237.985     290.856      85.698
  C      238.099     291.253      86.991
  C      238.565     292.451      87.483
  C      239.050     293.427      86.527
  O      239.533     294.523      86.790
  N      238.492     292.498      88.847
  C      238.019     291.315      89.196
  N      237.802     290.513      88.104
  O      238.511     290.352      92.300
  O      238.132     288.393      93.885
  H      239.661     288.873      86.641
  H      238.063     290.786      93.052
  H      239.251     293.633      84.523
  H      237.843     290.984      90.209
  H      236.901     288.882      87.209
  H      239.443     288.610      88.936
  H      238.749     292.113      82.819
  H      238.846     286.288      89.241
  H      238.050     290.580      83.225
  H      236.085     286.821      89.543
  H      236.629     288.007      91.711
  H      237.377     286.411      91.542
  P      238.472     285.138      86.929
  C      239.382     282.826      87.689
  O      238.806     284.060      88.060
  O      239.854     285.920      86.725
  O      237.930     284.598      85.648
  H      240.354     285.534      85.979
  H      240.375     282.744      88.139
  H      239.475     282.716      86.601
  H      238.752     282.012      88.066
  H      242.322     289.402      92.147
  H      240.999     290.380      91.561
  H      241.176     288.731      91.011

 3  4  5  6  7  8  9  10  11  12  23  26  30  31 0
 6-311+G(2d,p)
 ****
 33  35  36  37  38 0
 6-311+G(2d,p)
 ****
 1  2  13  14  15  16  17  18  19  20  21  22  24  25 0
 3-21G
 ****
 27  28  29  32  34  39  40  41  42  43  44  45  46  47  48  49 0
 3-21G
 ****


