%nproc=1
%NoSave
%Mem=1900MB
#P OB98/GEN NMR

erre ene a

0 1
  C      200.555    -232.642    -387.100
  O      201.796    -232.967    -386.462
  P      203.013    -231.934    -386.610
  C      203.484    -230.943    -384.250
  O      203.834    -231.907    -385.232
  C      204.458    -230.997    -383.073
  O      204.418    -229.791    -382.285
  C      204.171    -232.127    -382.093
  O      204.706    -233.362    -382.546
  C      204.921    -231.647    -380.860
  O      206.326    -231.938    -380.998
  C      204.687    -230.134    -380.905
  N      203.104    -229.185    -376.126
  C      204.274    -229.658    -376.611
  N      204.614    -229.901    -377.894
  C      203.602    -229.588    -378.721
  C      202.354    -229.099    -378.372
  C      202.116    -228.895    -377.002
  N      200.924    -228.412    -376.513
  N      201.571    -228.910    -379.493
  C      202.340    -229.263    -380.502
  N      203.574    -229.690    -380.087
  O      202.279    -230.512    -386.628
  O      203.834    -232.139    -387.840
  H      206.413    -232.906    -381.059
  H      202.758    -229.900    -387.214
  H      205.040    -229.870    -375.873
  H      202.051    -229.226    -381.544
  H      205.569    -229.562    -380.590
  H      204.585    -232.141    -379.944
  H      203.097    -232.195    -381.877
  H      205.474    -231.113    -383.477
  H      202.460    -231.116    -383.901
  H      200.835    -228.264    -375.523
  H      200.189    -228.172    -377.168
  H      203.484    -229.948    -384.711
  P      203.799    -234.672    -382.357
  C      202.202    -234.859    -384.397
  O      203.460    -235.180    -383.836
  O      202.412    -234.070    -381.822
  O      204.367    -235.685    -381.423
  H      201.970    -234.719    -381.242
  H      202.255    -235.008    -385.481
  H      201.939    -233.817    -384.201
  H      201.434    -235.518    -383.986
  H      199.844    -233.420    -386.914
  H      200.710    -232.546    -388.154
  H      200.184    -231.718    -386.708

 3  4  5  6  7  8  9  10  11  12  22  25  29  30  31  32 0
 6-311+G(2d,p)
 ****
 33  36  37 0
 6-311+G(2d,p)
 ****
 1  2  13  14  15  16  17  18  19  20  21  23  24  26 0
 3-21G
 ****
 27  28  34  35  38  39  40  41  42  43  44  45  46  47  48 0
 3-21G
 ****


