%nproc=1
%NoSave
%Mem=1900MB
#P OB98/GEN NMR

erre ene a

0 1
  C     -879.411    -890.160    -456.528
  O     -879.289    -891.460    -457.054
  H     -879.081    -890.170    -455.483
  H     -880.462    -889.830    -456.555
  H     -878.785    -889.450    -457.086
  P     -879.561    -891.630    -458.633
  C     -877.047    -892.120    -459.178
  O     -878.389    -892.570    -459.184
  C     -876.098    -893.200    -459.707
  O     -875.958    -894.220    -458.714
  C     -876.602    -893.850    -461.018
  O     -875.474    -894.160    -461.825
  C     -877.242    -895.150    -460.526
  O     -877.290    -896.130    -461.543
  C     -876.329    -895.510    -459.337
  N     -876.977    -896.400    -458.392
  C     -877.263    -897.720    -458.842
  O     -876.991    -898.040    -460.000
  N     -877.893    -898.570    -457.999
  C     -878.247    -898.170    -456.810
  N     -878.899    -899.090    -456.036
  C     -878.016    -896.800    -456.306
  C     -877.359    -895.990    -457.136
  O     -879.188    -890.180    -459.184
  O     -880.948    -892.080    -458.973
  H     -877.857    -895.790    -462.294
  H     -878.358    -889.820    -458.812
  H     -878.352    -896.520    -455.323
  H     -877.117    -894.980    -456.841
  H     -875.392    -895.970    -459.685
  H     -878.247    -894.980    -460.178
  H     -877.308    -893.220    -461.556
  H     -875.109    -892.760    -459.858
  H     -879.076    -900.000    -456.431
  H     -876.726    -891.840    -458.167
  H     -879.284    -898.870    -455.129
  H     -876.985    -891.220    -459.793
  P     -875.457    -893.680    -463.360
  C     -875.533    -891.100    -463.057
  O     -874.769    -892.230    -463.477
  O     -876.731    -893.820    -464.104
  O     -874.320    -894.640    -463.996
  H     -874.631    -894.920    -464.886
  H     -874.955    -890.209    -463.190
  H     -875.790    -891.207    -462.024
  H     -876.426    -891.036    -463.642

 6  7  8  9  10  11  12  13  14  15  16  26  30  31  32  33  35 0
 6-311+G(2d,p)
 ****
 37  38 0
 6-311+G(2d,p)
 ****
 1  2  3  4  5  17  18  19  20  21  22  23  24  25 0
 3-21G
 ****
 27  28  29  34  36  39  40  41  42  43  44  45  46 0
 3-21G
 ****


