%nproc=1
%NoSave
%Mem=1900MB
#P OB98/GEN NMR

erre ene a

0 1
  C       -9.226      99.309    -124.818
  O       -7.869      99.587    -124.506
  P       -7.579     100.540    -123.235
  C       -8.310     102.937    -122.562
  O       -8.334     101.924    -123.564
  C       -8.598     104.304    -123.181
  O       -9.965     104.334    -123.664
  C       -8.484     105.481    -122.216
  O       -7.142     105.884    -122.036
  C       -9.296     106.551    -122.949
  O       -8.476     107.171    -123.957
  C      -10.417     105.707    -123.600
  N      -13.874     108.706    -121.430
  C      -12.705     109.039    -122.099
  N      -12.435     110.353    -122.212
  N      -11.875     108.155    -122.597
  C      -12.294     106.875    -122.431
  C      -13.439     106.425    -121.791
  C      -14.322     107.396    -121.200
  O      -15.333     107.180    -120.546
  N      -13.520     105.048    -121.829
  C      -12.468     104.676    -122.534
  N      -11.667     105.762    -122.881
  O       -6.036     100.909    -123.402
  O       -7.871      99.924    -121.894
  H       -7.712     107.559    -123.486
  H       -5.649     101.135    -122.534
  H      -14.495     109.423    -121.084
  H      -12.249     103.648    -122.813
  H      -10.590     106.032    -124.646
  H       -9.651     107.329    -122.287
  H      -13.098     111.086    -121.982
  H       -8.962     105.249    -121.256
  H      -11.605     110.622    -122.727
  H       -7.918     104.439    -124.040
  H       -7.306     102.969    -122.092
  H       -9.048     102.693    -121.777
  P       -6.681     106.212    -120.532
  C       -7.194     108.154    -118.859
  O       -7.399     107.613    -120.157
  O       -5.142     106.589    -120.689
  O       -6.894     105.087    -119.568
  H       -4.662     106.412    -119.850
  H       -6.180     107.950    -118.493
  H       -7.933     107.709    -118.181
  H       -7.354     109.237    -118.916
  H       -9.271      98.671    -125.676
  H       -9.739     100.225    -125.027
  H       -9.691      98.822    -123.986

 3  4  5  6  7  8  9  10  11  12  23  26  30  31  33  0
 6-311+G(2d,p)
 ****
 35  36  37  38 0
 6-311+G(2d,p)
 ****
 1  2  13  14  15  16  17  18  19  20  21  22  24  25  27  28  29 0
 3-21G
 ****
 32  34  39  40  41  42  43  44  45  46  47  48  49 0
 3-21G
 ****


