%nproc=1
%NoSave
%Mem=1900MB
#P OB98/GEN NMR

erre ene a

0 1
  C      635.950     442.876     333.090
  O      637.309     443.218     332.912
  H      635.873     441.785     333.167
  H      635.356     443.215     332.238
  H      635.569     443.322     334.014
  P      637.640     444.766     332.675
  C      637.082     446.476     330.794
  O      637.224     445.108     331.160
  C      636.728     446.573     329.312
  O      635.628     445.682     329.006
  C      636.269     447.956     328.874
  O      637.344     448.852     328.676
  C      635.553     447.614     327.574
  O      636.456     447.532     326.466
  C      634.925     446.240     327.884
  N      633.485     446.347     328.131
  C      632.677     445.440     327.436
  O      633.131     444.594     326.670
  N      631.336     445.555     327.639
  C      630.720     446.513     328.403
  O      629.496     446.606     328.491
  C      631.620     447.457     329.098
  C      632.944     447.336     328.927
  O      639.241     444.799     332.639
  O      637.084     445.693     333.707
  H      639.581     445.194     333.465
  H      635.965     447.091     325.746
  H      630.735     444.913     327.144
  H      631.156     448.224     329.708
  H      633.612     448.035     329.418
  H      635.071     445.557     327.044
  H      634.812     448.378     327.326
  H      635.535     448.353     329.591
  H      637.599     446.254     328.722
  H      638.029     447.002     330.961
  H      636.305     446.935     331.418
  P      637.069     450.417     328.928
  C      635.400     452.074     327.747
  O      636.229     450.919     327.663
  O      638.540     451.018     328.713
  O      636.461     450.691     330.264
  H      639.074     450.458     328.113
  H      634.926     452.243     326.802
  H      635.997     452.924     328.003
  H      634.653     451.923     328.499

 6  7  8  9  10  11  12  13  14  15  16  27  31  32  33  34  35 0
 6-311+G(2d,p)
 ****
 36  37 0
 6-311+G(2d,p)
 ****
 1  2  3  4  5  17  18  19  20  21  22  23  24  25 0
 3-21G
 ****
 26  28  29  30  38  39  40  41  42  43  44  45 0
 3-21G
 ****


