%nproc=1
%NoSave
%Mem=1900MB
#P OB98/GEN NMR

erre ene a

0 1
  C      750.061     269.794     214.550
  O      749.278     270.892     214.975
  P      749.946     272.080     215.838
  C      747.755     272.375     217.169
  O      749.163     272.105     217.236
  C      747.005     271.515     218.178
  O      747.179     270.098     217.871
  C      747.492     271.658     219.613
  O      747.302     272.904     220.250
  C      746.861     270.434     220.273
  O      745.488     270.684     220.609
  C      746.961     269.393     219.142
  N      748.020     268.399     219.385
  C      747.829     267.552     220.470
  O      746.827     267.588     221.188
  N      748.834     266.655     220.709
  C      750.019     266.574     220.038
  O      750.901     265.789     220.340
  C      750.175     267.504     218.912
  C      749.186     268.374     218.647
  O      750.036     273.393     215.141
  O      751.367     271.473     216.261
  H      745.187     269.924     221.134
  H      751.318     270.648     216.787
  H      748.718     266.042     221.497
  H      751.112     267.457     218.347
  H      749.281     269.088     217.818
  H      746.014     268.853     219.039
  H      747.382     270.164     221.206
  H      748.586     271.489     219.615
  H      745.935     271.737     218.091
  H      747.407     272.142     216.155
  H      747.570     273.440     217.344
  P      748.508     273.822     220.777
  C      747.875     273.624     223.289
  O      748.832     273.386     222.290
  O      748.430     275.283     220.492
  O      749.760     273.205     219.989
  H      750.410     273.911     219.819
  H      748.284     273.289     224.253
  H      746.959     273.050     223.092
  H      747.635     274.690     223.331
  H      749.450     269.114     213.995
  H      750.467     269.293     215.404
  H      750.859     270.144     213.929

 3  4  5  6  7  8  9  10  11  12  13  23  28  29  30  31  32 0
 6-311+G(2d,p)
 ****
 33  34 0
 6-311+G(2d,p)
 ****
 1  2  14  15  16  17  18  19  20  21  22  24  25  26  27 0
 3-21G
 ****
 35  36  37  38  39  40  41  42  43  44  45 0
 3-21G
 ****


