%nproc=1
%NoSave
%Mem=1900MB
#P OB98/GEN NMR

erre ene a

0 1
  C       84.756      -6.043    -208.810
  O       83.689      -5.314    -209.397
  P       82.253      -5.234    -208.690
  C       81.377      -7.376    -209.812
  O       81.756      -6.756    -208.590
  C       81.414      -8.894    -209.666
  O       82.776      -9.289    -209.368
  C       80.572      -9.478    -208.534
  O       79.206      -9.685    -208.861
  C       81.253     -10.827    -208.340
  O       80.817     -11.741    -209.362
  C       82.728     -10.475    -208.535
  N       84.997     -12.606    -204.472
  C       84.441     -13.142    -205.584
  N       83.838     -12.508    -206.612
  C       83.884     -11.174    -206.436
  C       84.421     -10.486    -205.363
  C       85.001     -11.260    -204.342
  N       85.586     -10.711    -203.223
  N       84.260      -9.124    -205.528
  C       83.650      -9.000    -206.689
  N       83.411     -10.210    -207.280
  O       81.302      -4.283    -209.326
  O       82.581      -4.863    -207.169
  H       81.369     -12.542    -209.281
  H       81.774      -4.535    -206.726
  H       84.477     -14.226    -205.653
  H       83.363      -8.060    -207.138
  H       83.284     -11.262    -209.059
  H       81.015     -11.289    -207.376
  H       80.674      -8.888    -207.614
  H       81.137      -9.341    -210.629
  H       82.089      -7.069    -210.588
  H       86.090     -11.334    -202.611
  H       85.732      -9.711    -203.204
  H       80.381      -7.033    -210.105
  P       78.138      -9.565    -207.663
  C       77.974     -12.164    -207.405
  O       78.283     -10.918    -206.818
  O       76.756      -9.225    -208.100
  O       78.799      -8.462    -206.710
  H       79.622      -8.732    -206.273
  H       78.290     -12.962    -206.728
  H       78.496     -12.288    -208.357
  H       76.896     -12.246    -207.565
  H       85.622      -5.972    -209.434
  H       84.473      -7.070    -208.708
  H       84.977      -5.637    -207.845

 3  4  5  6  7  8  9  10  11  12  22  25  29  30  31  32 0
 6-311+G(2d,p)
 ****
 33  36  37 0
 6-311+G(2d,p)
 ****
 1  2  13  14  15  16  17  18  19  20  21  23  24  26 0
 3-21G
 ****
 27  28  34  35  38  39  40  41  42  43  44  45  46  47  48 0
 3-21G
 ****


