%nproc=1
%NoSave
%Mem=1900MB
#P OB98/GEN NMR

erre ene a

0 1
  C      199.914    -512.890    -230.124
  O      200.034    -514.292    -229.882
  P      201.500    -514.934    -229.704
  C      202.033    -515.140    -232.206
  O      201.832    -515.839    -230.984
  C      201.777    -516.024    -233.438
  O      202.759    -517.105    -233.505
  C      200.392    -516.680    -233.472
  O      199.985    -516.722    -234.848
  C      200.661    -518.076    -232.943
  O      199.628    -518.997    -233.273
  C      202.027    -518.346    -233.597
  N      202.740    -519.440    -232.947
  C      202.440    -520.738    -233.373
  O      201.530    -520.931    -234.180
  N      203.153    -521.781    -232.841
  C      203.996    -521.554    -231.872
  N      204.706    -522.624    -231.390
  C      204.205    -520.224    -231.275
  C      203.576    -519.220    -231.878
  O      201.758    -515.585    -228.377
  O      202.470    -513.666    -229.912
  H      199.422    -518.919    -234.232
  H      203.251    -513.764    -229.325
  H      204.848    -520.101    -230.413
  H      203.664    -518.204    -231.523
  H      201.910    -518.584    -234.659
  H      200.754    -518.043    -231.846
  H      199.636    -516.132    -232.897
  H      201.914    -515.412    -234.340
  H      204.537    -523.533    -231.786
  H      203.062    -514.767    -232.242
  H      205.399    -522.519    -230.670
  H      201.384    -514.247    -232.226
  P      198.576    -516.078    -235.271
  C      197.502    -517.912    -236.764
  O      198.171    -516.670    -236.695
  O      198.997    -514.567    -235.636
  O      197.521    -516.057    -234.206
  H      198.222    -513.990    -235.524
  H      197.058    -518.018    -237.775
  H      196.702    -517.974    -236.028
  H      198.212    -518.729    -236.608
  H      198.880    -512.631    -230.217
  H      200.427    -512.639    -231.029
  H      200.345    -512.349    -229.308

 3  4  5  6  7  8  9  10  11  12  13  23  27  28  29  30  32 0
 6-311+G(2d,p)
 ****
 34  35 0
 6-311+G(2d,p)
 ****
 1  2  14  15  16  17  18  19  20  21  22  24  25  26 0
 3-21G
 ****
 31  33  36  37  38  39  40  41  42  43  44  45  46 0
 3-21G
 ****


