%nproc=1
%NoSave
%Mem=1900MB
#P OB98/GEN NMR

erre ene a

0 1
  C      467.572      71.460     -92.422
  O      466.836      70.804     -91.412
  H      467.321      71.003     -93.385
  H      468.645      71.338     -92.251
  H      467.316      72.523     -92.463
  P      467.026      71.287     -89.892
  C      464.619      70.577     -89.247
  O      466.007      70.363     -89.053
  C      463.828      69.357     -88.789
  O      464.254      68.919     -87.477
  C      462.325      69.585     -88.640
  O      461.638      69.677     -89.876
  C      461.948      68.336     -87.862
  O      461.935      67.204     -88.742
  C      463.120      68.257     -86.853
  N      462.809      68.889     -85.573
  C      462.185      68.084     -84.611
  O      461.924      66.903     -84.851
  N      461.854      68.634     -83.393
  C      462.091      69.894     -83.171
  N      461.729      70.396     -81.953
  C      462.719      70.787     -84.163
  C      463.045      70.223     -85.326
  O      466.907      72.759     -89.651
  O      468.441      70.682     -89.458
  H      461.231      67.366     -89.402
  H      468.615      70.960     -88.522
  H      462.866      71.830     -83.946
  H      463.509      70.817     -86.109
  H      463.408      67.213     -86.672
  H      460.957      68.403     -87.396
  H      462.125      70.463     -88.011
  H      464.044      68.543     -89.489
  H      461.300      69.757     -81.298
  H      464.446      70.781     -90.308
  H      461.812      71.370     -81.724
  H      464.289      71.447     -88.661
  P      460.367      70.662     -89.930
  C      460.516      70.108     -92.473
  O      459.701      70.464     -91.370
  O      461.034      72.110     -90.005
  O      459.410      70.531     -88.784
  H      461.052      72.533     -89.118
  H      459.910      70.018     -93.350
  H      460.996      69.173     -92.274
  H      461.257      70.864     -92.627

 6  7  8  9  10  11  12  13  14  15  16  26  30  31  32  33  35 0
 6-311+G(2d,p)
 ****
 37  38 0
 6-311+G(2d,p)
 ****
 1  2  3  4  5  17  18  19  20  21  22  23  24  25 0
 3-21G
 ****
 27  28  29  34  36  39  40  41  42  43  44  45  46 0
 3-21G
 ****


