%nproc=1
%NoSave
%Mem=1900MB
#P OB98/GEN NMR

erre ene a

0 1
  C      778.012     557.912     406.948
  O      779.363     557.611     406.656
  H      777.505     558.267     406.044
  H      777.513     557.010     407.300
  H      777.954     558.677     407.731
  P      780.268     558.813     406.091
  C      780.646     559.811     403.712
  O      779.924     558.889     404.513
  C      780.009     559.885     402.331
  O      780.066     558.582     401.682
  C      778.525     560.261     402.360
  O      778.321     561.658     402.474
  C      778.075     559.725     401.002
  O      778.495     560.642     399.969
  C      778.848     558.403     400.905
  N      775.998     554.330     399.677
  C      776.630     555.246     398.916
  N      777.390     556.297     399.312
  C      777.459     556.326     400.664
  C      776.877     555.459     401.562
  C      776.107     554.423     401.020
  N      775.435     553.495     401.796
  N      777.170     555.832     402.859
  C      777.936     556.898     402.738
  N      778.131     557.265     401.431
  O      781.754     558.207     406.103
  O      780.165     560.107     406.809
  H      778.377     560.189     399.112
  H      782.414     558.918     405.990
  H      776.521     555.138     397.837
  H      778.382     557.457     403.572
  H      779.148     558.169     399.865
  H      776.983     559.644     400.930
  H      777.989     559.700     403.143
  H      780.574     560.590     401.711
  H      781.683     559.452     403.618
  H      774.787     552.883     401.326
  H      775.389     553.642     402.799
  H      780.635     560.795     404.176
  P      777.062     562.148     403.345
  C      774.510     562.452     402.839
  O      775.748     561.828     402.462
  O      777.176     563.741     403.272
  O      777.037     561.644     404.746
  H      776.844     564.149     404.092
  H      773.737     562.146     402.166
  H      774.619     563.516     402.797
  H      774.252     562.159     403.835

 6  7  8  9  10  11  12  13  14  15  25  28  32  33  34  35 0
 6-311+G(2d,p)
 ****
 36  39  40 0
 6-311+G(2d,p)
 ****
 1  2  3  4  5  16  17  18  19  20  21  22  23  24 0
 3-21G
 ****
 26  27  29  30  31  37  38  41  42  43  44  45  46  47 0
 3-21G
 ****
 48 0
 3-21G
 ****


