%nproc=1
%NoSave
%Mem=1900MB
#P OB98/GEN NMR

erre ene a

0 1
  C      897.618     700.789     -24.662
  O      896.749     701.370     -23.707
  H      897.635     701.427     -25.547
  H      897.252     699.801     -24.956
  H      898.635     700.712     -24.267
  P      896.619     700.672     -22.261
  C      894.115     701.248     -22.283
  O      895.327     701.327     -21.555
  C      892.930     701.562     -21.378
  O      892.741     700.460     -20.450
  C      893.100     702.837     -20.540
  O      891.832     703.501     -20.458
  C      893.506     702.334     -19.178
  O      893.149     703.232     -18.134
  C      892.757     701.001     -19.108
  N      893.615     699.993     -14.234
  C      892.846     700.969     -14.814
  N      892.233     701.845     -13.971
  N      892.690     701.103     -16.100
  C      893.352     700.164     -16.822
  C      894.140     699.138     -16.357
  C      894.318     699.014     -14.934
  O      894.994     698.171     -14.356
  N      894.665     698.401     -17.405
  C      894.183     698.990     -18.485
  N      893.397     700.065     -18.197
  O      897.858     700.693     -21.427
  O      896.143     699.181     -22.592
  H      893.630     702.951     -17.330
  H      896.899     698.565     -22.549
  H      893.702     699.940     -13.227
  H      894.399     698.679     -19.507
  H      891.714     701.112     -18.771
  H      894.594     702.177     -19.138
  H      892.292     701.789     -12.966
  H      893.847     703.529     -20.967
  H      891.640     702.563     -14.387
  H      892.015     701.619     -21.993
  H      894.013     700.229     -22.677
  H      894.137     701.959     -23.125
  P      891.351     704.418     -21.680
  C      890.407     706.687     -20.880
  O      890.119     705.321     -21.171
  O      891.131     703.705     -22.975
  O      892.539     705.501     -21.807
  H      892.602     705.781     -22.741
  H      889.514     707.178     -20.554
  H      890.777     707.169     -21.761
  H      891.145     706.739     -20.107

 6  7  8  9  10  11  12  13  14  15  26  29  33  34 0
 6-311+G(2d,p)
 ****
 36  38  39  40  41 0
 6-311+G(2d,p)
 ****
 1  2  3  4  5  16  17  18  19  20  21  22  23  24  25 0
 3-21G
 ****
 27  28  30  31  32  35  37  42  43  44  45  46  47 0
 3-21G
 ****
 48  49 0
 3-21G
 ****


