%nproc=1
%NoSave
%Mem=1900MB
#P OB98/GEN NMR

erre ene a

0 1
  C      193.603     710.618    -307.756
  O      193.865     711.716    -306.907
  H      194.436     709.920    -307.697
  H      193.507     710.964    -308.796
  H      192.683     710.105    -307.451
  P      192.679     712.782    -306.716
  C      191.814     711.694    -304.474
  O      191.565     712.036    -305.831
  C      190.512     711.598    -303.684
  O      189.752     710.464    -304.177
  C      190.718     711.406    -302.175
  O      189.683     712.107    -301.487
  C      190.528     709.911    -301.987
  O      190.157     709.581    -300.645
  C      189.466     709.604    -303.052
  N      189.447     708.192    -303.435
  C      189.153     707.271    -302.435
  O      188.931     707.654    -301.273
  N      189.141     705.931    -302.740
  C      189.472     705.543    -303.931
  N      189.476     704.205    -304.169
  C      189.840     706.483    -305.019
  C      189.788     707.772    -304.706
  O      192.041     712.828    -308.176
  O      193.117     714.112    -306.185
  H      190.278     708.614    -300.525
  H      191.922     711.949    -308.576
  H      190.119     706.107    -305.994
  H      190.032     708.538    -305.437
  H      188.456     709.874    -302.679
  H      191.452     709.383    -302.222
  H      191.701     711.753    -301.831
  H      189.915     712.499    -303.886
  H      189.248     703.596    -303.388
  H      192.473     712.442    -304.014
  H      189.766     703.782    -305.044
  H      192.345     710.734    -304.461
  P      189.835     712.409    -299.910
  C      189.614     714.977    -300.157
  O      190.418     713.888    -299.720
  O      190.499     711.336    -299.115
  O      188.304     712.584    -299.444
  H      188.202     712.132    -298.575
  H      190.127     715.897    -299.969
  H      188.686     714.971    -299.625
  H      189.425     714.882    -301.206

 6  7  8  9  10  11  12  13  14  15  16  26  30  31  32  33  35 0
 6-311+G(2d,p)
 ****
 37  38 0
 6-311+G(2d,p)
 ****
 1  2  3  4  5  17  18  19  20  21  22  23  24  25 0
 3-21G
 ****
 27  28  29  34  36  39  40  41  42  43  44  45  46 0
 3-21G
 ****


