%nproc=1
%NoSave
%Mem=1900MB
#P OB98/GEN NMR

erre ene a

0 1
  C      -88.338    -267.682     219.967
  O      -89.505    -266.902     220.104
  H      -87.806    -267.685     220.921
  H      -87.690    -267.241     219.203
  H      -88.576    -268.713     219.694
  P      -90.680    -267.078     219.031
  C      -90.956    -266.694     216.495
  O      -90.045    -266.868     217.571
  C      -90.433    -265.700     215.458
  O      -90.319    -264.383     216.042
  C      -89.035    -266.062     214.958
  O      -88.995    -267.013     213.908
  C      -88.510    -264.708     214.490
  O      -88.927    -264.434     213.142
  C      -89.173    -263.733     215.465
  N      -84.640    -261.710     216.670
  C      -85.124    -262.079     215.431
  N      -84.270    -261.948     214.392
  N      -86.328    -262.554     215.240
  C      -87.034    -262.719     216.383
  C      -86.654    -262.400     217.670
  C      -85.339    -261.826     217.863
  O      -84.859    -261.488     218.941
  N      -87.640    -262.707     218.575
  C      -88.581    -263.279     217.849
  N      -88.270    -263.283     216.510
  O      -91.561    -265.751     219.217
  O      -91.518    -268.309     219.194
  H      -89.900    -264.435     213.116
  H      -92.480    -265.922     218.945
  H      -83.715    -261.325     216.754
  H      -89.512    -263.678     218.237
  H      -89.539    -262.836     214.950
  H      -87.417    -264.675     214.496
  H      -83.299    -261.702     214.507
  H      -88.411    -266.405     215.788
  H      -84.488    -262.451     213.530
  H      -91.152    -265.625     214.633
  H      -91.888    -266.326     216.928
  H      -91.176    -267.657     216.024
  P      -87.622    -267.756     213.554
  C      -85.910    -267.633     211.598
  O      -87.073    -267.106     212.196
  O      -88.114    -269.212     213.108
  O      -86.637    -267.821     214.669
  H      -88.049    -269.834     213.856
  H      -85.687    -267.085     210.707
  H      -86.070    -268.662     211.353
  H      -85.090    -267.552     212.281

 6  7  8  9  10  11  12  13  14  15  26  29  33  34 0
 6-311+G(2d,p)
 ****
 36  38  39  40  41 0
 6-311+G(2d,p)
 ****
 1  2  3  4  5  16  17  18  19  20  21  22  23  24  25 0
 3-21G
 ****
 27  28  30  31  32  35  37  42  43  44  45  46  47 0
 3-21G
 ****
 48  49 0
 3-21G
 ****


