%nproc=1
%NoSave
%Mem=1900MB
#P OB98/GEN NMR

erre ene a

0 1
  C      137.668      16.394     -51.841
  O      136.749      16.736     -50.801
  P      135.195      16.502     -51.130
  C      135.174      13.931     -51.487
  O      134.815      15.019     -50.644
  C      135.103      12.600     -50.727
  O      136.194      12.495     -49.764
  C      133.790      12.406     -49.945
  O      133.481      11.006     -50.000
  C      134.199      12.813     -48.536
  O      133.284      12.381     -47.541
  C      135.593      12.196     -48.482
  N      136.136      12.322     -43.408
  C      135.211      11.744     -44.203
  N      135.135      11.759     -45.552
  C      136.156      12.459     -46.075
  C      137.177      13.110     -45.393
  C      137.144      13.022     -43.988
  N      138.069      13.627     -43.168
  N      138.031      13.745     -46.281
  C      137.485      13.539     -47.468
  N      136.407      12.703     -47.399
  O      135.162      16.402     -52.728
  O      134.303      17.582     -50.611
  H      133.595      12.671     -46.658
  H      134.883      17.252     -53.117
  H      134.426      11.196     -43.687
  H      137.831      13.967     -48.401
  H      135.560      11.106     -48.380
  H      134.257      13.907     -48.478
  H      132.950      12.977     -50.347
  H      135.225      11.783     -51.451
  H      136.189      14.071     -51.867
  H      137.961      13.511     -42.171
  H      138.828      14.166     -43.564
  H      134.514      13.925     -52.364
  P      131.946      10.558     -50.126
  C      131.195      10.150     -52.548
  O      131.902       9.627     -51.436
  O      131.288      11.915     -50.681
  O      131.305      10.031     -48.884
  H      131.787      12.259     -51.445
  H      131.307       9.462     -53.389
  H      131.596      11.127     -52.828
  H      130.131      10.236     -52.305
  H      138.667      16.590     -51.513
  H      137.457      16.981     -52.711
  H      137.568      15.355     -52.078

 3  4  5  6  7  8  9  10  11  12  22  25  29  30  31  32 0
 6-311+G(2d,p)
 ****
 33  36  37 0
 6-311+G(2d,p)
 ****
 1  2  13  14  15  16  17  18  19  20  21  23  24  26 0
 3-21G
 ****
 27  28  34  35  38  39  40  41  42  43  44  45  46  47  48 0
 3-21G
 ****


