%nproc=1
%NoSave
%Mem=1900MB
#P OB98/GEN NMR

erre ene a

0 1
  C       -0.329     318.332     -44.171
  O       -1.351     319.059     -43.519
  P       -1.539     320.629     -43.770
  C       -3.727     320.128     -45.012
  O       -2.486     320.815     -45.051
  C       -4.908     321.098     -45.064
  O       -6.143     320.349     -45.185
  C       -5.026     322.010     -43.833
  O       -5.453     323.296     -44.299
  C       -6.121     321.345     -43.022
  O       -6.743     322.245     -42.114
  C       -7.023     320.813     -44.140
  N       -7.910     319.756     -43.685
  C       -9.101     320.148     -43.072
  O       -9.304     321.337     -42.818
  N      -10.020     319.183     -42.748
  C       -9.694     317.929     -42.849
  N      -10.660     317.007     -42.584
  C       -8.352     317.481     -43.259
  C       -7.532     318.431     -43.701
  O       -0.276     321.421     -43.811
  O       -2.476     321.110     -42.562
  H       -2.049     321.863     -42.108
  H       -7.429     321.760     -41.610
  H       -8.088     316.434     -43.209
  H       -6.530     318.200     -44.051
  H       -7.629     321.623     -44.565
  H       -5.697     320.518     -42.444
  H       -4.080     322.115     -43.292
  H       -4.805     321.708     -45.974
  H      -11.580     317.352     -42.345
  H       -3.774     319.565     -44.077
  H      -10.607     316.052     -42.934
  H       -3.782     319.407     -45.837
  P       -4.904     324.601     -43.538
  C       -2.518     324.348     -44.523
  O       -3.321     324.441     -43.365
  O       -5.431     324.342     -42.040
  O       -5.405     325.919     -44.029
  H       -5.520     325.199     -41.586
  H       -1.484     324.176     -44.220
  H       -2.563     325.278     -45.095
  H       -2.840     323.510     -45.149
  H       -0.373     317.306     -43.870
  H        0.624     318.741     -43.906
  H       -0.464     318.399     -45.230

 3  4  5  6  7  8  9  10  11  12  13  24  27  28  29  30  32 0
 6-311+G(2d,p)
 ****
 34  35 0
 6-311+G(2d,p)
 ****
 1  2  14  15  16  17  18  19  20  21  22  23  25  26 0
 3-21G
 ****
 31  33  36  37  38  39  40  41  42  43  44  45  46 0
 3-21G
 ****


