%nproc=1
%NoSave
%Mem=1900MB
#P OB98/GEN NMR

erre ene a

0 1
  C       55.038    -100.975     -11.148
  O       55.792     -99.796     -10.943
  H       54.870    -101.133     -12.217
  H       55.599    -101.823     -10.750
  H       54.080    -100.908     -10.625
  P       55.123     -98.423     -11.434
  C       56.315     -98.859     -13.697
  O       55.117     -98.478     -13.038
  C       56.384     -98.213     -15.077
  O       57.615     -98.574     -15.735
  C       55.270     -98.630     -16.032
  O       54.064     -97.926     -15.777
  C       55.878     -98.229     -17.368
  O       55.732     -96.810     -17.561
  C       57.359     -98.583     -17.165
  N       59.233    -101.075     -21.220
  C       59.065     -99.760     -20.968
  N       58.578     -99.171     -19.856
  C       58.265    -100.092     -18.932
  C       58.400    -101.467     -19.033
  C       58.906    -101.962     -20.246
  N       59.009    -103.317     -20.516
  N       57.956    -102.088     -17.881
  C       57.544    -101.105     -17.109
  N       57.716     -99.882     -17.697
  O       56.251     -97.336     -11.093
  O       53.819     -98.086     -10.793
  H       54.791     -96.601     -17.407
  H       56.043     -96.916     -10.239
  H       59.356     -99.088     -21.770
  H       57.113    -101.231     -16.125
  H       58.026     -97.841     -17.616
  H       55.404     -98.723     -18.221
  H       55.116     -99.715     -16.021
  H       56.389     -97.123     -14.939
  H       56.341     -99.947     -13.807
  H       58.924    -103.541     -21.504
  H       58.507    -103.912     -19.869
  H       57.166     -98.542     -13.087
  P       52.682     -98.658     -16.138
  C       51.906     -96.590     -17.486
  O       52.156     -97.989     -17.501
  O       51.681     -98.093     -15.026
  O       52.726    -100.146     -16.123
  H       51.278     -98.837     -14.537
  H       51.563     -96.279     -18.451
  H       52.808     -96.069     -17.243
  H       51.158     -96.369     -16.753

 6  7  8  9  10  11  12  13  14  15  25  28  32  33  34  35 0
 6-311+G(2d,p)
 ****
 36  39  40 0
 6-311+G(2d,p)
 ****
 1  2  3  4  5  16  17  18  19  20  21  22  23  24 0
 3-21G
 ****
 26  27  29  30  31  37  38  41  42  43  44  45  46  47  48 0
 3-21G
 ****


