%nproc=1
%NoSave
%Mem=1900MB
#P OB98/GEN NMR

erre ene a

0 1
  C      195.321    -934.125     283.679
  O      194.802    -933.475     284.814
  H      194.949    -935.153     283.659
  H      196.416    -934.153     283.734
  H      195.012    -933.616     282.768
  P      195.157    -931.915     284.989
  C      196.715    -932.608     286.943
  O      196.576    -931.860     285.742
  C      197.915    -932.115     287.754
  O      199.128    -932.296     286.956
  C      197.839    -930.621     288.147
  O      198.444    -930.475     289.437
  C      198.745    -929.962     287.119
  O      199.229    -928.686     287.554
  C      199.827    -931.033     286.980
  N      202.683    -927.714     284.491
  C      202.056    -927.621     285.729
  N      202.217    -926.453     286.390
  N      201.343    -928.575     286.242
  C      201.289    -929.691     285.475
  C      201.865    -929.922     284.244
  C      202.637    -928.838     283.665
  O      203.200    -928.858     282.571
  N      201.567    -931.165     283.782
  C      200.808    -931.706     284.731
  N      200.623    -930.850     285.777
  O      194.112    -931.446     286.112
  O      195.054    -931.095     283.752
  H      199.942    -928.407     286.949
  H      193.309    -931.081     285.694
  H      203.213    -926.948     284.130
  H      200.385    -932.702     284.702
  H      200.524    -931.041     287.825
  H      198.202    -929.822     286.177
  H      202.791    -925.690     286.071
  H      196.829    -930.213     288.163
  H      201.802    -926.382     287.312
  H      198.019    -932.750     288.643
  H      196.872    -933.670     286.689
  H      195.801    -932.515     287.545
  P      197.482    -930.178     290.693
  C      197.511    -927.573     290.740
  O      196.775    -928.762     290.450
  O      198.529    -929.865     291.864
  O      196.576    -931.311     291.042
  H      198.134    -930.089     292.726
  H      196.905    -926.717     290.527
  H      198.394    -927.544     290.136
  H      197.786    -927.567     291.774

 6  7  8  9  10  11  12  13  14  15  26  29  33  34 0
 6-311+G(2d,p)
 ****
 36  38  39  40  41 0
 6-311+G(2d,p)
 ****
 1  2  3  4  5  16  17  18  19  20  21  22  23  24  25 0
 3-21G
 ****
 27  28  30  31  32  35  37  42  43  44  45  46  47 0
 3-21G
 ****
 48  49 0
 3-21G
 ****


