%nproc=1
%NoSave
%Mem=1900MB
#P OB98/GEN NMR

erre ene a

0 1
  C      -95.975      -2.944     196.226
  O      -95.351      -3.667     197.274
  P      -96.307      -4.487     198.273
  C      -98.082      -3.846     200.070
  O      -97.028      -3.409     199.216
  C      -98.269      -2.856     201.218
  O      -97.096      -2.839     202.057
  C      -98.476      -1.409     200.782
  O      -99.791      -1.206     200.292
  C      -98.160      -0.679     202.084
  O      -99.288      -0.744     202.971
  C      -96.996      -1.515     202.645
  N      -92.031      -1.434     203.912
  C      -93.090      -2.077     204.456
  N      -94.385      -2.030     204.076
  C      -94.538      -1.224     203.010
  C      -93.558      -0.489     202.366
  C      -92.249      -0.617     202.854
  N      -91.170       0.042     202.300
  N      -94.096       0.242     201.327
  C      -95.381      -0.056     201.340
  N      -95.694      -0.949     202.327
  O      -95.273      -5.207     199.256
  O      -97.223      -5.467     197.604
  H      -99.076      -0.196     203.753
  H      -95.605      -6.081     199.534
  H      -92.868      -2.713     205.308
  H      -96.119       0.344     200.652
  H      -97.048      -1.631     203.736
  H      -97.917       0.377     201.934
  H      -97.745      -1.136     200.011
  H      -99.121      -3.197     201.823
  H      -97.833      -4.827     200.487
  H      -90.295       0.011     202.801
  H      -91.354       0.756     201.605
  H      -99.000      -3.943     199.481
  P      -99.974      -0.142     199.103
  C      -99.762       2.419     198.977
  O      -99.694       1.276     199.811
  O     -101.563      -0.133     198.919
  O      -99.175      -0.424     197.875
  H     -102.028      -0.042     199.767
  H      -99.608       3.308     199.590
  H     -100.745       2.481     198.499
  H      -98.979       2.371     198.214
  H      -95.229      -2.448     195.641
  H      -96.643      -2.218     196.642
  H      -96.525      -3.620     195.604

 3  4  5  6  7  8  9  10  11  12  22  25  29  30  31  32 0
 6-311+G(2d,p)
 ****
 33  36  37 0
 6-311+G(2d,p)
 ****
 1  2  13  14  15  16  17  18  19  20  21  23  24  26 0
 3-21G
 ****
 27  28  34  35  38  39  40  41  42  43  44  45  46  47  48 0
 3-21G
 ****


