%nproc=1
%NoSave
%Mem=1900MB
#P OB98/GEN NMR

erre ene a

0 1
  C     -198.144      77.117     588.931
  O     -196.912      77.111     589.624
  H     -198.585      78.110     589.005
  H     -198.826      76.396     589.394
  H     -198.000      76.870     587.876
  P     -195.946      75.849     589.388
  C     -197.137      74.695     591.388
  O     -196.673      74.574     590.047
  C     -197.158      73.324     592.065
  O     -195.802      72.793     592.099
  C     -197.680      73.356     593.510
  O     -198.472      72.185     593.741
  C     -196.413      73.294     594.346
  O     -196.642      72.752     595.650
  C     -195.513      72.442     593.465
  N     -191.962      71.872     597.005
  C     -193.283      71.455     596.986
  N     -193.723      70.792     598.079
  N     -194.090      71.666     595.984
  C     -193.504      72.314     594.951
  C     -192.222      72.780     594.841
  C     -191.336      72.564     595.971
  O     -190.166      72.931     596.060
  N     -192.015      73.415     593.641
  C     -193.175      73.327     593.017
  N     -194.112      72.657     593.768
  O     -194.724      76.140     590.382
  O     -195.475      75.658     587.986
  H     -195.766      72.655     596.084
  H     -193.908      76.276     589.864
  H     -191.383      71.692     597.813
  H     -193.386      73.730     592.038
  H     -195.707      71.364     593.588
  H     -195.999      74.301     594.464
  H     -193.141      70.543     598.861
  H     -198.272      74.243     593.729
  H     -194.674      70.441     598.070
  H     -197.750      72.640     591.454
  H     -198.146      75.118     591.379
  H     -196.472      75.371     591.939
  P     -200.065      72.378     593.759
  C     -201.063      71.832     596.094
  O     -200.504      72.827     595.243
  O     -200.613      70.874     593.649
  O     -200.584      73.238     592.650
  H     -200.993      70.727     592.755
  H     -201.306      72.268     597.040
  H     -200.353      71.044     596.236
  H     -201.950      71.436     595.645

 6  7  8  9  10  11  12  13  14  15  26  29  33  34 0
 6-311+G(2d,p)
 ****
 36  38  39  40  41 0
 6-311+G(2d,p)
 ****
 1  2  3  4  5  16  17  18  19  20  21  22  23  24  25 0
 3-21G
 ****
 27  28  30  31  32  35  37  42  43  44  45  46  47 0
 3-21G
 ****
 48  49 0
 3-21G
 ****


