%nproc=1
%NoSave
%Mem=1900MB
#P OB98/GEN NMR

erre ene a

0 1
  C      -83.925    -150.786    -277.365
  O      -84.006    -149.410    -277.745
  P      -82.673    -148.768    -278.369
  C      -80.597    -147.495    -277.478
  O      -81.783    -148.207    -277.152
  C      -79.880    -146.996    -276.217
  O      -80.643    -145.935    -275.569
  C      -79.649    -148.089    -275.167
  O      -78.402    -147.793    -274.523
  C      -80.778    -147.849    -274.182
  O      -80.514    -148.461    -272.921
  C      -80.810    -146.325    -274.184
  N      -82.944    -144.397    -270.033
  C      -81.698    -144.965    -270.211
  N      -80.880    -144.976    -269.137
  N      -81.289    -145.474    -271.346
  C      -82.199    -145.358    -272.344
  C      -83.459    -144.801    -272.296
  C      -83.909    -144.272    -271.027
  O      -84.998    -143.755    -270.818
  N      -84.071    -144.842    -273.528
  C      -83.200    -145.483    -274.293
  N      -82.032    -145.765    -273.637
  O      -83.209    -147.444    -279.089
  O      -81.959    -149.672    -279.320
  H      -81.161    -148.100    -272.276
  H      -83.293    -147.597    -280.049
  H      -83.214    -144.034    -269.135
  H      -83.359    -145.741    -275.326
  H      -79.987    -145.888    -273.603
  H      -81.718    -148.263    -274.574
  H      -81.115    -144.556    -268.252
  H      -79.640    -149.108    -275.565
  H      -79.944    -145.350    -269.251
  H      -78.917    -146.567    -276.520
  H      -80.842    -146.640    -278.114
  H      -79.945    -148.140    -278.076
  P      -77.362    -148.995    -274.325
  C      -77.141    -150.941    -272.628
  O      -77.652    -149.646    -272.893
  O      -75.964    -148.236    -274.116
  O      -77.284    -149.950    -275.472
  H      -75.252    -148.731    -274.567
  H      -76.999    -151.049    -271.551
  H      -76.187    -151.111    -273.133
  H      -77.866    -151.687    -272.966
  H      -84.866    -151.102    -276.965
  H      -83.164    -150.907    -276.623
  H      -83.685    -151.379    -278.222

 3  4  5  6  7  8  9  10  11  12  23  26  30  31 0
 6-311+G(2d,p)
 ****
 33  35  36  37  38 0
 6-311+G(2d,p)
 ****
 1  2  13  14  15  16  17  18  19  20  21  22  24  25 0
 3-21G
 ****
 27  28  29  32  34  39  40  41  42  43  44  45  46  47  48  49 0
 3-21G
 ****


