%nproc=1
%NoSave
%Mem=1900MB
#P OB98/GEN NMR

erre ene a

0 1
  C        3.941       4.747      13.695
  O        3.426       4.441      14.980
  P        4.390       3.889      16.136
  C        4.202       1.556      15.074
  O        5.084       2.563      15.558
  C        4.866       0.182      15.140
  O        6.173       0.265      14.524
  C        5.061      -0.329      16.563
  O        4.873      -1.747      16.574
  C        6.521      -0.040      16.869
  O        7.032      -0.942      17.865
  C        7.153      -0.181      15.481
  N       12.155       0.217      16.561
  C       11.251      -0.746      16.839
  N        9.933      -0.775      16.545
  C        9.584       0.314      15.842
  C       10.396       1.377      15.478
  C       11.743       1.306      15.871
  N       12.667       2.285      15.575
  N        9.673       2.330      14.787
  C        8.455       1.839      14.717
  N        8.353       0.618      15.330
  O        3.745       3.721      17.468
  O        5.595       4.936      16.187
  H        7.864      -0.553      18.204
  H        5.879       5.083      17.110
  H       11.636      -1.609      17.375
  H        7.615       2.327      14.249
  H        7.400      -1.225      15.254
  H        6.620       0.980      17.255
  H        4.385       0.144      17.282
  H        4.269      -0.524      14.551
  H        3.955       1.786      14.034
  H       13.631       2.090      15.789
  H       12.402       3.005      14.917
  H        3.278       1.569      15.662
  P        3.934      -2.321      17.750
  C        5.977      -2.838      19.277
  O        4.785      -2.110      19.090
  O        3.453      -3.704      17.458
  O        2.784      -1.208      17.802
  H        3.103      -0.344      17.461
  H        6.389      -2.589      20.259
  H        6.711      -2.566      18.514
  H        5.780      -3.913      19.239
  H        3.149       5.099      13.068
  H        4.373       3.867      13.265
  H        4.690       5.506      13.782

 3  4  5  6  7  8  9  10  11  12  22  25  29  30  31  32 0
 6-311+G(2d,p)
 ****
 33  36  37 0
 6-311+G(2d,p)
 ****
 1  2  13  14  15  16  17  18  19  20  21  23  24  26 0
 3-21G
 ****
 27  28  34  35  38  39  40  41  42  43  44  45  46  47  48 0
 3-21G
 ****


