%nproc=1
%NoSave
%Mem=1900MB
#P OB98/GEN NMR

erre ene a

0 1
  C     -543.440    1232.816    -892.740
  O     -542.664    1233.944    -893.110
  H     -544.401    1233.153    -892.340
  H     -542.915    1232.240    -891.960
  H     -543.624    1232.172    -893.610
  P     -541.291    1233.664    -893.870
  C     -541.973    1234.349    -896.320
  O     -541.230    1234.657    -895.140
  C     -541.666    1235.357    -897.410
  O     -542.381    1236.601    -897.220
  C     -540.201    1235.780    -897.460
  O     -539.343    1234.757    -897.920
  C     -540.290    1236.992    -898.380
  O     -540.367    1236.593    -899.750
  C     -541.606    1237.642    -897.910
  N     -541.399    1238.805    -897.070
  C     -541.412    1240.053    -897.730
  O     -541.597    1240.074    -898.970
  N     -541.194    1241.183    -897.000
  C     -541.016    1241.102    -895.720
  N     -540.770    1242.283    -895.050
  C     -541.017    1239.823    -894.970
  C     -541.250    1238.725    -895.690
  O     -541.527    1232.226    -894.550
  O     -540.056    1233.743    -893.030
  H     -539.469    1236.260    -900.000
  H     -542.359    1232.188    -895.080
  H     -540.873    1239.826    -893.910
  H     -541.246    1237.753    -895.240
  H     -542.223    1237.927    -898.770
  H     -539.420    1237.649    -898.300
  H     -539.882    1236.144    -896.470
  H     -541.964    1234.932    -898.390
  H     -540.755    1243.145    -895.620
  H     -543.062    1234.318    -896.110
  H     -540.583    1242.340    -894.080
  H     -541.682    1233.338    -896.640
  P     -538.009    1234.356    -897.100
  C     -538.897    1232.189    -896.000
  O     -538.026    1232.719    -896.980
  O     -537.858    1235.067    -895.800
  O     -536.820    1234.627    -898.160
  H     -536.902    1234.090    -898.970
  H     -538.832    1231.121    -896.005
  H     -539.902    1232.486    -896.218
  H     -538.617    1232.559    -895.036

 6  7  8  9  10  11  12  13  14  15  16  26  30  31  32  33  35 0
 6-311+G(2d,p)
 ****
 37  38 0
 6-311+G(2d,p)
 ****
 1  2  3  4  5  17  18  19  20  21  22  23  24  25 0
 3-21G
 ****
 27  28  29  34  36  39  40  41  42  43  44  45  46 0
 3-21G
 ****


