%nproc=1
%NoSave
%Mem=1900MB
#P OB98/GEN NMR

erre ene a

0 1
  C     -473.648    -752.095    -896.920
  O     -474.133    -751.614    -895.690
  H     -473.750    -751.300    -897.670
  H     -474.225    -752.965    -897.240
  H     -472.591    -752.365    -896.830
  P     -474.053    -752.628    -894.440
  C     -472.831    -751.042    -892.770
  O     -472.764    -752.188    -893.600
  C     -471.700    -750.063    -893.110
  O     -471.737    -749.774    -894.530
  C     -471.811    -748.714    -892.390
  O     -470.478    -748.199    -892.210
  C     -472.550    -747.879    -893.400
  O     -472.479    -746.500    -893.080
  C     -471.858    -748.349    -894.670
  N     -472.915    -744.675    -898.080
  C     -472.084    -744.697    -897.010
  N     -471.850    -745.716    -896.160
  C     -472.544    -746.803    -896.510
  C     -473.414    -746.941    -897.590
  C     -473.587    -745.797    -898.390
  N     -474.425    -745.764    -899.480
  N     -473.952    -748.208    -897.630
  C     -473.416    -748.840    -896.600
  N     -472.566    -748.024    -895.890
  O     -473.618    -754.012    -895.120
  O     -475.308    -752.763    -893.650
  H     -473.039    -745.975    -893.690
  H     -474.407    -754.550    -895.300
  H     -471.559    -743.777    -896.800
  H     -473.603    -749.862    -896.310
  H     -470.845    -747.930    -894.760
  H     -473.627    -748.137    -893.420
  H     -472.294    -748.782    -891.400
  H     -470.738    -750.553    -892.910
  H     -472.748    -751.364    -891.730
  H     -473.796    -750.537    -892.920
  H     -474.506    -744.906    -900.000
  H     -474.954    -746.592    -899.720
  P     -469.747    -748.359    -890.790
  C     -467.772    -749.971    -891.360
  O     -469.040    -749.793    -890.730
  O     -470.998    -748.557    -889.800
  O     -468.916    -747.187    -890.360
  H     -470.759    -748.242    -888.910
  H     -467.445    -750.981    -891.225
  H     -467.059    -749.304    -890.922
  H     -467.861    -749.761    -892.406

 6  7  8  9  10  11  12  13  14  15  25  28  32  33  34  35 0
 6-311+G(2d,p)
 ****
 36  37  40 0
 6-311+G(2d,p)
 ****
 1  2  3  4  5  16  17  18  19  20  21  22  23  24 0
 3-21G
 ****
 26  27  29  30  31  38  39 41  42  43  44  45  46  47  48 0
 3-21G
 ****


