%nproc=1
%NoSave
%Mem=1900MB
#P OB98/GEN NMR

erre ene a

0 1
  C      274.223     635.155     -37.169
  O      275.469     634.938     -37.812
  H      273.464     635.342     -37.930
  H      274.288     636.029     -36.511
  H      273.934     634.275     -36.592
  P      276.719     634.618     -36.861
  C      278.348     636.419     -37.806
  O      277.540     635.991     -36.717
  C      278.737     637.879     -37.622
  O      277.560     638.716     -37.733
  C      279.331     638.192     -36.249
  O      280.691     637.809     -36.148
  C      279.116     639.699     -36.179
  O      280.165     640.409     -36.861
  C      277.785     639.884     -36.909
  N      274.902     643.365     -34.534
  C      275.875     643.484     -35.463
  N      276.588     642.501     -36.060
  C      276.179     641.295     -35.621
  C      275.199     641.021     -34.685
  C      274.536     642.121     -34.130
  N      273.565     642.009     -33.164
  N      275.102     639.658     -34.474
  C      276.003     639.118     -35.271
  N      276.676     640.072     -35.989
  O      277.658     633.711     -37.792
  O      276.383     633.937     -35.579
  H      280.910     640.454     -36.235
  H      277.535     632.774     -37.559
  H      276.124     644.495     -35.764
  H      276.209     638.061     -35.363
  H      277.799     640.751     -37.578
  H      279.101     640.042     -35.143
  H      278.732     637.715     -35.467
  H      279.436     638.163     -38.423
  H      277.788     636.304     -38.742
  H      279.238     635.785     -37.850
  H      273.175     642.840     -32.766
  H      273.371     641.094     -32.776
  P      281.383     637.902     -34.707
  C      283.207     639.591     -35.517
  O      282.127     639.324     -34.627
  O      282.583     636.854     -34.796
  O      280.475     637.619     -33.564
  H      282.707     636.415     -33.920
  H      283.587     640.574     -35.332
  H      282.861     639.527     -36.527
  H      283.985     638.873     -35.360

 6  7  8  9  10  11  12  13  14  15  25  28  32  33  34  35 0
 6-311+G(2d,p)
 ****
 36  37  40 0
 6-311+G(2d,p)
 ****
 1  2  3  4  5  16  17  18  19  20  21  22  23  24 0
 3-21G
 ****
 26  27  29  30  31  38  39 41  42  43  44  45  46  47  48 0
 3-21G
 ****


