%nproc=1
%NoSave
%Mem=1900MB
#P OB98/GEN NMR

erre ene a

0 1
  C       39.080      37.096      91.258
  O       39.681      36.144      90.399
  P       40.716      36.661      89.288
  C       39.281      35.893      87.226
  O       39.856      36.954      87.966
  C       38.803      36.396      85.860
  O       38.254      35.277      85.112
  C       37.718      37.479      85.927
  O       37.945      38.374      84.831
  C       36.440      36.688      85.713
  O       35.368      37.494      85.250
  C       36.920      35.637      84.707
  N       36.063      34.451      84.650
  C       34.893      34.530      83.902
  O       34.528      35.540      83.306
  N       34.124      33.395      83.883
  C       34.368      32.244      84.574
  O       33.634      31.265      84.535
  C       35.593      32.238      85.386
  C       36.375      33.318      85.378
  O       41.506      35.314      88.950
  O       41.569      37.795      89.744
  H       40.940      34.523      88.981
  H       34.644      36.903      84.973
  H       33.289      33.417      83.317
  H       35.814      31.347      85.961
  H       37.282      33.337      85.969
  H       36.996      36.081      83.708
  H       36.135      36.226      86.659
  H       37.735      38.032      86.870
  H       39.675      36.762      85.305
  H       38.428      35.488      87.774
  H       40.018      35.092      87.110
  P       37.717      39.948      85.078
  C       35.179      39.987      84.442
  O       36.170      40.159      85.429
  O       37.817      40.488      83.570
  O       38.709      40.592      85.990
  H       37.276      39.976      82.949
  H       34.214      39.841      84.934
  H       35.386      39.116      83.815
  H       35.124      40.883      83.818
  H       38.420      36.597      91.937
  H       38.525      37.802      90.676
  H       39.840      37.608      91.810

 3  4  5  6  7  8  9  10  11  12  13  24  28  29  30  31  32 0
 6-311+G(2d,p)
 ****
 33  34 0
 6-311+G(2d,p)
 ****
 1  2  14  15  16  17  18  19  20  21  22  23  25  26  27 0
 3-21G
 ****
 35  36  37  38  39  40  41  42  43  44  45 0
 3-21G
 ****


