%nproc=1
%NoSave
%Mem=1900MB
#P OB98/GEN NMR

erre ene a

0 1
  C      848.979     -24.960     153.795
  O      848.948     -24.491     152.463
  P      850.247     -24.620     151.528
  C      849.719     -26.666     150.070
  O      850.458     -26.169     151.172
  C      850.644     -26.991     148.900
  O      851.511     -28.101     149.227
  C      849.921     -27.414     147.635
  O      849.290     -26.317     146.988
  C      851.058     -28.049     146.839
  O      851.862     -27.050     146.195
  C      851.862     -28.736     147.970
  N      851.640     -30.173     148.018
  C      852.199     -30.919     146.965
  O      852.757     -30.348     146.033
  N      852.089     -32.283     147.007
  C      851.386     -32.847     147.931
  N      851.359     -34.208     147.955
  C      850.646     -32.089     148.963
  C      850.840     -30.774     148.962
  O      851.464     -23.917     152.033
  O      849.774     -24.003     150.122
  H      850.436     -23.334     149.838
  H      852.566     -27.524     145.719
  H      850.018     -32.605     149.674
  H      850.354     -30.133     149.700
  H      852.940     -28.550     147.833
  H      850.704     -28.734     146.067
  H      849.172     -28.177     147.871
  H      851.271     -26.107     148.711
  H      851.887     -34.698     147.241
  H      848.992     -25.904     149.759
  H      851.124     -34.745     148.796
  H      849.163     -27.568     150.376
  P      847.813     -26.566     146.412
  C      846.210     -25.975     148.353
  O      846.882     -26.995     147.638
  O      847.969     -27.903     145.562
  O      847.284     -25.448     145.573
  H      847.408     -27.856     144.762
  H      845.374     -26.434     148.904
  H      845.813     -25.212     147.681
  H      846.890     -25.520     149.079
  H      848.029     -24.789     154.256
  H      849.738     -24.438     154.339
  H      849.194     -26.008     153.799

 3  4  5  6  7  8  9  10  11  12  13  24  27  28  29  30  32 0
 6-311+G(2d,p)
 ****
 34  35 0
 6-311+G(2d,p)
 ****
 1  2  14  15  16  17  18  19  20  21  22  23  25  26 0
 3-21G
 ****
 31  33  36  37  38  39  40  41  42  43  44  45  46 0
 3-21G
 ****


