%nproc=1
%NoSave
%Mem=1900MB
#P OB98/GEN NMR

erre ene a

0 1
  C       76.392     611.199     -30.645
  O       77.124     609.989     -30.539
  H       77.062     612.033     -30.423
  H       75.569     611.205     -29.922
  H       76.000     611.318     -31.659
  P       76.285     608.632     -30.734
  C       77.188     607.973     -28.375
  O       77.005     607.607     -29.738
  C       78.009     606.910     -27.656
  O       77.236     605.700     -27.500
  C       79.278     606.483     -28.401
  O       80.345     607.414     -28.260
  C       79.570     605.171     -27.708
  O       80.146     605.419     -26.412
  C       78.153     604.566     -27.591
  N       77.800     603.702     -28.709
  C       77.696     602.337     -28.460
  O       77.921     601.893     -27.325
  N       77.381     601.481     -29.485
  C       77.174     601.949     -30.679
  N       76.878     601.072     -31.671
  C       77.244     603.397     -31.006
  C       77.563     604.199     -29.983
  O       76.748     608.101     -32.174
  O       74.809     608.750     -30.560
  H       81.016     605.834     -26.570
  H       76.377     607.199     -32.329
  H       77.080     603.744     -32.005
  H       77.642     605.273     -30.141
  H       78.053     603.987     -26.660
  H       80.283     604.551     -28.269
  H       79.079     606.286     -29.463
  H       78.248     607.280     -26.648
  H       76.885     600.080     -31.440
  H       76.204     608.068     -27.909
  H       76.875     601.325     -32.654
  H       77.708     608.933     -28.304
  P       81.305     607.653     -29.511
  C       83.489     607.251     -28.159
  O       82.714     608.161     -28.925
  O       80.706     608.957     -30.209
  O       81.397     606.499     -30.473
  H       80.744     608.892     -31.172
  H       84.391     607.730     -27.841
  H       83.730     606.397     -28.757
  H       82.930     606.940     -27.302

 6  7  8  9  10  11  12  13  14  15  16  26  30  31  32  33  35 0
 6-311+G(2d,p)
 ****
 37  38 0
 6-311+G(2d,p)
 ****
 1  2  3  4  5  17  18  19  20  21  22  23  24  25 0
 3-21G
 ****
 27  28  29  34  36  39  40  41  42  43  44  45  46 0
 3-21G
 ****


