%nproc=1
%NoSave
%Mem=1900MB
#P OB98/GEN NMR

erre ene a

0 1
  C      -44.245      13.792     -20.035
  O      -43.553      14.031     -21.262
  P      -44.185      15.158     -22.216
  C      -43.482      17.191     -20.771
  O      -43.335      16.503     -22.004
  C      -42.471      18.337     -20.656
  O      -41.105      17.822     -20.673
  C      -42.577      19.369     -21.791
  O      -42.270      20.645     -21.216
  C      -41.471      18.920     -22.731
  O      -41.107      19.909     -23.680
  C      -40.404      18.537     -21.713
  N      -36.873      18.283     -25.384
  C      -37.808      19.213     -25.093
  N      -38.718      19.206     -24.097
  C      -38.591      18.094     -23.353
  C      -37.689      17.057     -23.527
  C      -36.794      17.180     -24.604
  N      -35.852      16.229     -24.922
  N      -37.885      16.072     -22.570
  C      -38.936      16.486     -21.886
  N      -39.340      17.733     -22.268
  O      -45.594      15.480     -21.531
  O      -44.328      14.725     -23.638
  H      -40.781      20.707     -23.219
  H      -46.313      15.010     -21.993
  H      -37.831      20.077     -25.752
  H      -39.437      15.926     -21.109
  H      -39.937      19.417     -21.253
  H      -41.807      18.037     -23.289
  H      -43.566      19.412     -22.254
  H      -42.620      18.832     -19.688
  H      -43.337      16.502     -19.937
  H      -35.258      16.404     -25.716
  H      -35.769      15.387     -24.372
  H      -44.510      17.560     -20.689
  P      -43.319      21.846     -21.395
  C      -44.356      21.572     -19.066
  O      -43.565      22.391     -19.905
  O      -44.669      21.020     -21.652
  O      -43.004      22.847     -22.453
  H      -44.791      20.327     -20.979
  H      -44.377      22.014     -18.066
  H      -43.927      20.569     -19.001
  H      -45.378      21.519     -19.450
  H      -43.739      13.027     -19.483
  H      -45.246      13.477     -20.245
  H      -44.268      14.692     -19.457

 3  4  5  6  7  8  9  10  11  12  22  25  29  30  31  32 0
 6-311+G(2d,p)
 ****
 33  36  37 0
 6-311+G(2d,p)
 ****
 1  2  13  14  15  16  17  18  19  20  21  23  24  26 0
 3-21G
 ****
 27  28  34  35  38  39  40  41  42  43  44  45  46  47  48 0
 3-21G
 ****


