%nproc=1
%NoSave
%Mem=1900MB
#P OB98/GEN NMR

erre ene a

0 1
  C      184.925    -248.848     -74.140
  O      183.545    -248.481     -74.231
  P      182.480    -249.417     -73.480
  C      182.600    -248.469     -71.058
  O      182.908    -249.540     -71.942
  C      181.540    -248.908     -70.046
  O      182.078    -249.860     -69.108
  C      181.014    -247.764     -69.196
  O      180.080    -246.992     -69.922
  C      180.411    -248.504     -68.007
  O      179.029    -248.831     -68.231
  C      181.271    -249.785     -67.920
  N      182.090    -249.830     -66.720
  C      181.457    -250.305     -65.566
  O      180.270    -250.634     -65.600
  N      182.180    -250.371     -64.402
  C      183.416    -249.972     -64.387
  N      184.078    -250.057     -63.204
  C      184.110    -249.440     -65.577
  C      183.394    -249.396     -66.699
  O      182.792    -250.872     -74.069
  O      181.059    -249.022     -73.712
  H      178.605    -247.995     -68.516
  H      181.975    -251.398     -74.120
  H      185.137    -249.114     -65.513
  H      183.823    -249.018     -67.622
  H      180.629    -250.675     -67.923
  H      180.447    -247.895     -67.098
  H      181.848    -247.136     -68.856
  H      180.712    -249.380     -70.592
  H      183.571    -250.424     -62.408
  H      182.240    -247.607     -71.623
  H      185.038    -249.768     -63.077
  H      183.519    -248.153     -70.553
  P      180.468    -245.477     -70.263
  C      181.871    -245.743     -72.395
  O      181.894    -245.566     -70.993
  O      180.873    -244.903     -68.821
  O      179.431    -244.637     -70.928
  H      181.042    -243.945     -68.877
  H      182.878    -245.578     -72.786
  H      181.191    -245.028     -72.866
  H      181.565    -246.765     -72.635
  H      185.518    -248.142     -74.683
  H      185.063    -249.824     -74.556
  H      185.226    -248.852     -73.113

 3  4  5  6  7  8  9  10  11  12  13  21  23  27  28  29  30  32 0
 6-311+G(2d,p)
 ****
 34  35 0
 6-311+G(2d,p)
 ****
 1  2  14  15  16  17  18  19  20  22  24  25  26 0
 3-21G
 ****
 31  33  36  37  38  39  40  41  42  43  44  45  46 0
 3-21G
 ****


