%nproc=1
%NoSave
%Mem=1900MB
#P OB98/GEN NMR

erre ene a

0 1
  C     -378.658    -317.162     -13.368
  O     -379.466    -317.757     -12.372
  H     -378.160    -316.288     -12.939
  H     -379.274    -316.837     -14.213
  H     -377.899    -317.869     -13.711
  P     -380.336    -319.031     -12.812
  C     -382.733    -319.263     -13.786
  O     -381.557    -318.473     -13.692
  C     -383.539    -318.836     -15.011
  O     -382.758    -319.051     -16.208
  C     -384.823    -319.628     -15.216
  O     -385.866    -319.195     -14.361
  C     -385.106    -319.341     -16.682
  O     -385.794    -318.093     -16.853
  C     -383.688    -319.281     -17.291
  N     -383.358    -320.486     -18.046
  C     -384.164    -320.740     -19.152
  O     -385.096    -320.011     -19.493
  N     -383.884    -321.890     -19.846
  C     -382.928    -322.806     -19.523
  O     -382.777    -323.855     -20.137
  C     -382.098    -322.477     -18.345
  C     -382.352    -321.355     -17.669
  O     -381.029    -319.487     -11.441
  O     -379.560    -320.139     -13.449
  H     -380.568    -320.268     -11.081
  H     -385.771    -317.898     -17.813
  H     -384.465    -322.096     -20.643
  H     -381.325    -323.180     -18.063
  H     -381.771    -321.104     -16.789
  H     -383.601    -318.420     -17.967
  H     -385.737    -320.111     -17.132
  H     -384.632    -320.702     -15.098
  H     -383.756    -317.763     -14.930
  H     -383.346    -319.117     -12.890
  H     -382.453    -320.320     -13.852
  P     -387.139    -320.149     -14.160
  C     -389.412    -320.378     -15.456
  O     -388.060    -319.960     -15.464
  O     -387.931    -319.369     -13.009
  O     -386.784    -321.562     -13.841
  H     -387.857    -318.403     -13.081
  H     -389.855    -320.170     -16.407
  H     -389.944    -319.851     -14.692
  H     -389.459    -321.429     -15.263

 6  7  8  9  10  11  12  13  14  15  16  27  31  32  33  34  35 0
 6-311+G(2d,p)
 ****
 36  37 0
 6-311+G(2d,p)
 ****
 1  2  3  4  5  17  18  19  20  21  22  23  24  25 0
 3-21G
 ****
 26  28  29  30  38  39  40  41  42  43  44  45 0
 3-21G
 ****


