%nproc=1
%NoSave
%Mem=1900MB
#P OB98/GEN NMR

erre ene a

0 1
  C     -189.864       6.542     -77.054
  O     -190.727       5.524     -77.530
  H     -188.829       6.224     -77.202
  H     -190.035       6.702     -75.986
  H     -190.032       7.473     -77.603
  P     -192.283       5.893     -77.617
  C     -192.136       7.448     -79.723
  O     -192.395       7.331     -78.330
  C     -193.021       8.534     -80.329
  O     -192.875       9.776     -79.613
  C     -192.666       8.902     -81.761
  O     -193.040       7.905     -82.687
  C     -193.444      10.200     -81.920
  O     -194.810       9.959     -82.281
  C     -193.353      10.813     -80.500
  N     -192.510      11.994     -80.478
  C     -193.146      13.179     -80.081
  O     -194.335      13.165     -79.763
  N     -192.428      14.346     -80.093
  C     -191.195      14.340     -80.492
  N     -190.549      15.536     -80.512
  C     -190.487      13.114     -80.921
  C     -191.199      11.988     -80.889
  O     -192.647       6.213     -76.093
  O     -193.140       4.846     -78.243
  H     -195.208       9.461     -81.536
  H     -192.026       6.823     -75.662
  H     -189.454      13.160     -81.231
  H     -190.759      11.042     -81.188
  H     -194.351      11.098     -80.141
  H     -193.016      10.833     -82.700
  H     -191.596       9.134     -81.836
  H     -194.066       8.206     -80.249
  H     -191.087      16.359     -80.264
  H     -192.305       6.493     -80.228
  H     -189.617      15.665     -80.876
  H     -191.079       7.706     -79.844
  P     -192.311       7.772     -84.106
  C     -190.729       5.933     -83.238
  O     -190.824       7.230     -83.813
  O     -192.363       8.987     -84.967
  O     -193.011       6.485     -84.754
  H     -192.915       5.664     -84.239
  H     -189.699       5.683     -83.090
  H     -191.179       5.218     -83.895
  H     -191.237       5.922     -82.296

 6  7  8  9  10  11  12  13  14  15  16  26  30  31  32  33  35 0
 6-311+G(2d,p)
 ****
 37  38 0
 6-311+G(2d,p)
 ****
 1  2  3  4  5  17  18  19  20  21  22  23  24  25 0
 3-21G
 ****
 27  28  29  34  36  39  40  41  42  43  44  45  46 0
 3-21G
 ****


