%nproc=1
%NoSave
%Mem=1900MB
#P OB98/GEN NMR

erre ene a

0 1
  C      -91.622    -174.067     115.290
  O      -91.128    -175.165     114.552
  H      -92.712    -174.140     115.336
  H      -91.357    -173.129     114.797
  H      -91.228    -174.075     116.309
  P      -89.542    -175.373     114.444
  C      -87.555    -174.040     113.489
  O      -88.939    -174.026     113.820
  C      -87.023    -172.611     113.421
  O      -87.387    -171.882     114.615
  C      -85.503    -172.521     113.329
  O      -85.059    -172.845     112.027
  C      -85.284    -171.077     113.750
  O      -85.553    -170.176     112.664
  C      -86.344    -170.915     114.865
  N      -85.784    -171.076     116.208
  C      -85.961    -170.007     117.079
  O      -86.545    -168.972     116.767
  N      -85.398    -170.150     118.321
  C      -84.619    -171.195     118.726
  O      -83.958    -171.181     119.760
  C      -84.531    -172.327     117.792
  C      -85.095    -172.212     116.589
  O      -89.099    -176.632     113.779
  O      -89.051    -175.311     115.968
  H      -88.897    -176.219     116.294
  H      -86.381    -170.486     112.247
  H      -85.480    -169.361     118.944
  H      -83.975    -173.202     118.104
  H      -85.017    -173.021     115.872
  H      -86.810    -169.923     114.808
  H      -84.259    -170.890     114.074
  H      -85.043    -173.181     114.073
  H      -87.495    -172.111     112.565
  H      -87.437    -174.519     112.511
  H      -87.013    -174.622     114.240
  P      -84.345    -174.243     111.720
  C      -81.861    -174.859     111.852
  O      -82.968    -174.290     112.538
  O      -84.217    -174.584     110.272
  O      -85.252    -175.323     112.481
  H      -85.512    -176.023     111.850
  H      -81.000    -174.840     112.487
  H      -81.663    -174.295     110.965
  H      -82.087    -175.871     111.588

 6  7  8  9  10  11  12  13  14  15  16  27  31  32  33  34  35 0
 6-311+G(2d,p)
 ****
 36  37 0
 6-311+G(2d,p)
 ****
 1  2  3  4  5  17  18  19  20  21  22  23  24  25 0
 3-21G
 ****
 26  28  29  30  38  39  40  41  42  43  44  45 0
 3-21G
 ****


