%nproc=1
%NoSave
%Mem=1900MB
#P OB98/GEN NMR

erre ene a

0 1
  C       19.816      60.319      87.578
  O       19.797      59.775      86.254
  P       19.221      60.726      85.091
  C       16.914      61.072      83.933
  O       17.688      60.315      84.855
  C       15.574      60.394      83.663
  O       15.747      59.196      82.883
  C       14.834      59.948      84.918
  O       14.157      61.030      85.542
  C       13.840      58.952      84.335
  O       12.696      59.652      83.813
  C       14.644      58.306      83.195
  N       13.533      53.534      84.495
  C       12.693      54.597      84.221
  N       11.367      54.341      84.278
  N       13.112      55.797      83.921
  C       14.462      55.898      83.874
  C       15.400      54.922      84.127
  C       14.920      53.603      84.490
  O       15.624      52.638      84.774
  N       16.677      55.398      83.970
  C       16.513      56.653      83.597
  N       15.187      57.007      83.537
  O       19.956      60.174      83.781
  O       19.480      62.178      85.312
  H       12.245      60.067      84.575
  H       20.032      60.885      83.115
  H       13.156      52.631      84.731
  H       17.316      57.339      83.355
  H       14.044      58.202      82.284
  H       13.465      58.244      85.082
  H       10.974      53.426      84.431
  H       15.513      59.434      85.612
  H       10.736      55.100      84.044
  H       14.948      61.095      83.090
  H       17.462      61.184      82.994
  H       16.769      62.081      84.336
  P       15.029      61.993      86.485
  C       15.803      61.875      88.959
  O       15.087      61.258      87.910
  O       14.055      63.240      86.728
  O       16.340      62.408      85.905
  H       14.578      64.048      86.885
  H       15.605      62.950      88.998
  H       16.877      61.704      88.823
  H       15.493      61.429      89.907
  H       20.218      59.595      88.255
  H       18.819      60.570      87.875
  H       20.425      61.199      87.593

 3  4  5  6  7  8  9  10  11  12  23  26  30  31  33  0
 6-311+G(2d,p)
 ****
 35  36  37  38 0
 6-311+G(2d,p)
 ****
 1  2  13  14  15  16  17  18  19  20  21  22  24  25  27  28  29 0
 3-21G
 ****
 32  34  39  40  41  42  43  44  45  46  47  48  49 0
 3-21G
 ****


