%nproc=1
%NoSave
%Mem=1900MB
#P OB98/GEN NMR

erre ene a

0 1
  C      118.685      41.830     312.387
  O      118.417      42.320     313.705
  P      116.978      42.991     313.932
  C      117.749      45.064     312.576
  O      117.141      44.578     313.765
  C      117.828      46.597     312.595
  O      116.525      47.215     312.653
  C      118.592      47.147     313.797
  O      119.995      47.046     313.560
  C      118.105      48.586     313.849
  O      118.840      49.429     312.943
  C      116.638      48.452     313.395
  N      113.751      51.386     316.365
  C      114.744      51.736     315.467
  N      114.992      53.054     315.330
  N      115.437      50.866     314.777
  C      115.087      49.581     315.020
  C      114.100      49.114     315.858
  C      113.343      50.078     316.623
  O      112.438      49.819     317.406
  N      113.992      47.744     315.792
  C      114.998      47.385     315.013
  N      115.648      48.466     314.464
  O      116.717      42.781     315.499
  O      115.892      42.361     313.111
  H      118.456      50.325     312.961
  H      116.008      42.130     315.636
  H      113.251      52.092     316.877
  H      115.274      46.366     314.787
  H      116.358      49.267     312.707
  H      118.230      49.020     314.845
  H      114.496      53.781     315.833
  H      118.303      46.611     314.712
  H      115.706      53.339     314.671
  H      118.316      46.912     311.667
  H      117.177      44.739     311.701
  H      118.741      44.627     312.485
  P      120.797      45.882     314.308
  C      122.385      47.522     315.548
  O      122.263      46.438     314.645
  O      121.048      44.809     313.149
  O      120.069      45.265     315.466
  H      120.862      43.905     313.486
  H      123.347      47.442     316.059
  H      121.584      47.522     316.292
  H      122.356      48.463     314.984
  H      119.668      41.407     312.357
  H      118.622      42.637     311.687
  H      117.966      41.080     312.132

 3  4  5  6  7  8  9  10  11  12  23  26  30  31 0
 6-311+G(2d,p)
 ****
 33  35  36  37  38 0
 6-311+G(2d,p)
 ****
 1  2  13  14  15  16  17  18  19  20  21  22  24  25 0
 3-21G
 ****
 27  28  29  32  34  39  40  41  42  43  44  45  46  47  48  49 0
 3-21G
 ****


