%nproc=1
%NoSave
%Mem=1900MB
#P OB98/GEN NMR

erre ene a

0 1
  C      126.177    1390.226    -134.952
  O      126.527    1390.555    -133.618
  H      126.754    1390.854    -135.634
  H      125.108    1390.429    -135.110
  H      126.393    1389.180    -135.163
  P      125.923    1389.620    -132.468
  C      128.248    1388.691    -131.683
  O      127.099    1389.448    -131.381
  C      129.475    1389.274    -130.967
  O      129.979    1390.396    -131.737
  C      129.188    1389.763    -129.542
  O      130.323    1389.498    -128.723
  C      129.023    1391.264    -129.711
  O      129.273    1391.974    -128.495
  C      130.027    1391.543    -130.848
  N      129.741    1392.785    -131.571
  C      130.848    1393.481    -132.080
  O      131.991    1393.037    -131.911
  N      130.641    1394.666    -132.733
  C      129.451    1395.159    -132.808
  N      129.303    1396.346    -133.460
  C      128.252    1394.485    -132.246
  C      128.476    1393.313    -131.647
  O      125.861    1388.195    -133.194
  O      124.610    1390.091    -131.919
  H      130.147    1391.680    -128.155
  H      126.669    1387.983    -133.686
  H      127.269    1394.938    -132.323
  H      127.670    1392.736    -131.209
  H      131.048    1391.594    -130.445
  H      128.013    1391.494    -130.051
  H      128.304    1389.287    -129.118
  H      130.267    1388.500    -130.961
  H      130.150    1396.789    -133.810
  H      128.437    1388.688    -132.765
  H      128.429    1396.851    -133.527
  H      128.079    1387.656    -131.361
  P      130.226    1389.644    -127.138
  C      130.661    1387.193    -126.477
  O      131.134    1388.527    -126.427
  O      128.829    1389.780    -126.607
  O      131.051    1391.002    -126.863
  H      130.568    1391.509    -126.184
  H      131.351    1386.551    -125.971
  H      130.570    1386.885    -127.498
  H      129.705    1387.135    -126.000

 6  7  8  9  10  11  12  13  14  15  16  26  30  31  32  33  35 0
 6-311+G(2d,p)
 ****
 37  38 0
 6-311+G(2d,p)
 ****
 1  2  3  4  5  17  18  19  20  21  22  23  24  25 0
 3-21G
 ****
 27  28  29  34  36  39  40  41  42  43  44  45  46 0
 3-21G
 ****


