%nproc=1
%NoSave
%Mem=1900MB
#P OB98/GEN NMR

erre ene a

0 1
  C     -464.660     366.613    -165.878
  O     -464.464     365.374    -166.541
  P     -465.607     364.845    -167.529
  C     -467.145     362.739    -167.521
  O     -466.431     363.700    -166.756
  C     -466.622     361.331    -167.231
  O     -465.307     361.164    -167.847
  C     -466.465     361.013    -165.742
  O     -466.752     359.623    -165.553
  C     -464.987     361.261    -165.497
  O     -464.498     360.636    -164.322
  C     -464.415     360.718    -166.803
  N     -463.038     361.161    -167.050
  C     -462.150     360.226    -167.572
  O     -462.444     359.060    -167.837
  N     -460.855     360.657    -167.732
  C     -460.364     361.860    -167.343
  O     -459.163     362.141    -167.398
  C     -461.342     362.811    -166.795
  C     -462.616     362.432    -166.679
  O     -464.791     364.035    -168.645
  O     -466.467     365.917    -168.133
  H     -463.562     360.886    -164.231
  H     -464.684     364.577    -169.443
  H     -460.200     359.997    -168.120
  H     -460.983     363.793    -166.504
  H     -463.359     363.099    -166.263
  H     -464.445     359.624    -166.811
  H     -464.810     362.345    -165.399
  H     -467.109     361.621    -165.091
  H     -467.295     360.607    -167.711
  H     -467.015     362.960    -168.582
  H     -468.217     362.812    -167.297
  P     -467.403     359.159    -164.157
  C     -466.381     358.863    -161.766
  O     -466.358     359.539    -163.009
  O     -467.286     357.566    -164.280
  O     -468.814     359.635    -163.968
  H     -466.418     357.281    -164.639
  H     -466.668     357.812    -161.891
  H     -467.083     359.356    -161.102
  H     -465.385     358.906    -161.325
  H     -463.813     366.824    -165.259
  H     -465.540     366.558    -165.272
  H     -464.775     367.391    -166.603

 3  4  5  6  7  8  9  10  11  12  13  23  28  29  30  31  32 0
 6-311+G(2d,p)
 ****
 33  34 0
 6-311+G(2d,p)
 ****
 1  2  14  15  16  17  18  19  20  21  22  24  25  26 0
 3-21G
 ****
 27  35  36  37  38  39  40  41  42  43  44  45 0
 3-21G
 ****


