%nproc=1
%NoSave
%Mem=1900MB
#P OB98/GEN NMR

erre ene a

0 1
  C       86.397     353.033    -596.079
  O       86.585     354.436    -595.888
  P       88.005     355.072    -596.275
  C       87.308     356.918    -598.042
  O       87.813     356.578    -596.768
  C       86.594     358.287    -597.952
  O       85.234     358.109    -597.496
  C       87.280     359.268    -596.991
  O       88.318     359.983    -597.619
  C       86.110     360.123    -596.548
  O       85.784     361.087    -597.571
  C       84.980     359.070    -596.431
  N       84.859     358.335    -595.145
  C       84.271     358.951    -594.037
  O       83.846     360.098    -594.044
  N       84.182     358.176    -592.907
  C       84.445     356.852    -592.800
  O       84.292     356.200    -591.778
  C       84.909     356.211    -594.038
  C       85.109     356.957    -595.129
  O       88.417     354.289    -597.613
  O       89.057     354.952    -595.206
  H       85.056     361.632    -597.229
  H       89.227     353.748    -597.460
  H       83.829     358.642    -592.082
  H       85.086     355.135    -594.021
  H       85.457     356.492    -596.052
  H       83.996     359.524    -596.620
  H       86.356     360.692    -595.659
  H       87.653     358.726    -596.114
  H       86.556     358.720    -598.962
  H       86.607     356.148    -598.403
  H       88.125     356.967    -598.759
  P       89.195     361.026    -596.785
  C       91.354     359.769    -597.378
  O       90.658     361.005    -597.447
  O       89.158     360.865    -595.288
  O       88.625     362.460    -597.240
  H       87.948     362.786    -596.596
  H       92.252     359.841    -598.005
  H       90.727     358.950    -597.761
  H       91.653     359.555    -596.352
  H       85.407     352.762    -595.778
  H       87.109     352.494    -595.490
  H       86.534     352.792    -597.113

 3  4  5  6  7  8  9  10  11  12  13  23  28  29  30  31  32 0
 6-311+G(2d,p)
 ****
 33  34 0
 6-311+G(2d,p)
 ****
 1  2  14  15  16  17  18  19  20  21  22  24  25  26  27 0
 3-21G
 ****
 35  36  37  38  39  40  41  42  43  44  45 0
 3-21G
 ****


