%nproc=1
%NoSave
%Mem=1900MB
#P OB98/GEN NMR

erre ene a

0 1
  C      409.573     -71.564     154.525
  O      410.069     -70.411     153.871
  H      410.268     -71.838     155.325
  H      409.496     -72.399     153.823
  H      408.594     -71.353     154.963
  P      409.207     -69.864     152.634
  C      410.192     -71.345     150.768
  O      409.093     -71.121     151.640
  C      409.738     -72.104     149.516
  O      408.982     -73.270     149.930
  C      408.841     -71.270     148.596
  O      409.158     -71.582     147.239
  C      407.445     -71.767     148.911
  O      406.528     -71.583     147.837
  C      407.705     -73.233     149.274
  N      403.210     -75.645     149.360
  C      404.069     -75.366     148.355
  N      405.256     -74.731     148.422
  C      405.552     -74.416     149.696
  C      404.780     -74.632     150.822
  C      403.545     -75.275     150.624
  N      402.654     -75.542     151.637
  N      405.406     -74.123     151.951
  C      406.550     -73.621     151.503
  N      406.671     -73.763     150.147
  O      409.707     -68.602     152.009
  O      407.742     -69.781     153.267
  H      406.552     -70.640     147.568
  H      407.536     -70.576     153.796
  H      403.752     -75.692     147.362
  H      407.299     -73.138     152.119
  H      407.743     -73.880     148.387
  H      407.048     -71.220     149.784
  H      408.940     -70.200     148.767
  H      410.621     -72.466     148.989
  H      410.975     -71.924     151.282
  H      401.801     -76.019     151.405
  H      402.896     -75.289     152.585
  H      410.602     -70.371     150.495
  P      410.108     -70.569     146.427
  C      408.263     -68.758     146.260
  O      409.594     -69.066     146.677
  O      410.369     -70.927     145.003
  O      411.459     -70.610     147.288
  H      412.224     -70.562     146.674
  H      408.048     -67.734     146.482
  H      407.572     -69.388     146.779
  H      408.173     -68.921     145.206

 6  7  8  9  10  11  12  13  14  15  25  28  32  33  34  35 0
 6-311+G(2d,p)
 ****
 36  39  40 0
 6-311+G(2d,p)
 ****
 1  2  3  4  5  16  17  18  19  20  21  22  23  24 0
 3-21G
 ****
 26  27  29  30  31  37  38  41  42  43  44  45  46  47 0
 3-21G
 ****
 48 0
 3-21G
 ****


