%nproc=1
%NoSave
%Mem=1900MB
#P OB98/GEN NMR

erre ene a

0 1
  C     -262.099     129.429    -161.445
  O     -261.466     129.204    -160.187
  P     -260.737     130.332    -159.322
  C     -258.554     128.995    -158.757
  O     -259.746     129.612    -158.292
  C     -257.799     128.229    -157.651
  O     -257.522     129.129    -156.551
  C     -258.671     127.105    -157.088
  O     -258.733     125.854    -157.741
  C     -258.276     127.011    -155.619
  O     -257.263     126.031    -155.379
  C     -257.741     128.417    -155.310
  N     -259.360     129.322    -150.544
  C     -258.472     128.363    -150.987
  N     -257.990     127.506    -150.077
  N     -258.107     128.251    -152.242
  C     -258.728     129.118    -153.074
  C     -259.643     130.095    -152.746
  C     -260.000     130.253    -151.352
  O     -260.771     131.089    -150.893
  N     -260.079     130.768    -153.864
  C     -259.456     130.189    -154.862
  N     -258.611     129.180    -154.435
  O     -261.628     131.396    -158.774
  O     -259.741     131.028    -160.389
  H     -257.604     125.170    -155.678
  H     -259.674     131.973    -160.130
  H     -259.589     129.382    -149.559
  H     -259.570     130.455    -155.902
  H     -256.765     128.372    -154.806
  H     -259.139     126.730    -155.001
  H     -258.320     127.458    -149.122
  H     -259.704     127.470    -157.085
  H     -257.508     126.670    -150.438
  H     -256.831     127.880    -158.012
  H     -257.923     129.787    -159.174
  H     -258.786     128.310    -159.583
  P     -259.708     125.466    -158.951
  C     -261.509     124.781    -157.261
  O     -260.772     124.400    -158.410
  O     -258.790     124.579    -159.921
  O     -260.297     126.626    -159.688
  H     -259.199     124.508    -160.802
  H     -261.955     123.889    -156.811
  H     -262.304     125.477    -157.550
  H     -260.862     125.263    -156.517
  H     -262.507     128.509    -161.808
  H     -261.380     129.801    -162.145
  H     -262.885     130.146    -161.326

 3  4  5  6  7  8  9  10  11  12  23  26  30  31 0
 6-311+G(2d,p)
 ****
 33  35  36  37  38 0
 6-311+G(2d,p)
 ****
 1  2  13  14  15  16  17  18  19  20  21  22  24  25 0
 3-21G
 ****
 27  28  29  32  34  39  40  41  42  43  44  45  46  47  48  49 0
 3-21G
 ****


