%nproc=1
%NoSave
%Mem=1900MB
#P OB98/GEN NMR

erre ene a

0 1
  C     -514.206    -157.414     255.321
  O     -513.842    -156.638     254.202
  H     -515.242    -157.736     255.194
  H     -514.139    -156.824     256.237
  H     -513.569    -158.300     255.395
  P     -512.429    -155.872     254.210
  C     -513.186    -154.316     256.103
  O     -512.260    -155.326     255.719
  C     -513.138    -154.058     257.611
  O     -511.845    -153.508     257.970
  C     -514.210    -153.082     258.108
  O     -514.836    -153.615     259.277
  C     -513.419    -151.827     258.452
  O     -514.097    -151.018     259.412
  C     -512.085    -152.439     258.900
  N     -510.996    -151.471     258.905
  C     -510.733    -150.829     260.120
  O     -511.434    -151.064     261.107
  N     -509.714    -149.910     260.183
  C     -509.048    -149.619     259.107
  N     -508.057    -148.695     259.234
  C     -509.318    -150.239     257.798
  C     -510.289    -151.153     257.767
  O     -512.273    -154.837     253.147
  O     -511.337    -157.043     254.128
  H     -515.021    -150.874     259.101
  H     -510.477    -156.668     253.809
  H     -508.737    -149.956     256.929
  H     -510.549    -151.663     256.848
  H     -512.170    -152.869     259.907
  H     -513.273    -151.228     257.546
  H     -514.981    -152.871     257.366
  H     -513.213    -155.025     258.124
  H     -507.901    -148.296     260.156
  H     -514.193    -154.627     255.801
  H     -507.475    -148.385     258.470
  H     -512.928    -153.391     255.577
  P     -515.762    -154.911     259.055
  C     -517.936    -153.506     258.929
  O     -517.093    -154.447     258.284
  O     -516.270    -155.256     260.532
  O     -515.037    -156.061     258.437
  H     -515.752    -155.988     260.905
  H     -518.777    -153.292     258.303
  H     -517.390    -152.604     259.112
  H     -518.277    -153.911     259.859

 6  7  8  9  10  11  12  13  14  15  16  26  30  31  32  33  35 0
 6-311+G(2d,p)
 ****
 37  38 0
 6-311+G(2d,p)
 ****
 1  2  3  4  5  17  18  19  20  21  22  23  24  25 0
 3-21G
 ****
 27  28  29  34  36  39  40  41  42  43  44  45  46 0
 3-21G
 ****


