%nproc=1
%NoSave
%Mem=1900MB
#P OB98/GEN NMR

erre ene a

0 1
  C       -6.964    -252.990      31.432
  O       -7.599    -252.173      32.398
  H       -7.329    -252.708      30.442
  H       -7.205    -254.041      31.615
  H       -5.881    -252.844      31.467
  P       -7.182    -252.421      33.926
  C       -9.342    -252.411      35.389
  O       -8.282    -251.662      34.813
  C      -10.695    -251.902      34.879
  O      -10.882    -250.531      35.341
  C      -10.814    -251.877      33.346
  O      -12.200    -252.053      33.004
  C      -10.391    -250.450      33.030
  O      -10.732    -250.103      31.707
  C      -11.103    -249.717      34.165
  N      -11.609    -244.807      32.840
  C      -12.299    -245.910      32.483
  N      -12.115    -247.182      32.886
  C      -11.103    -247.258      33.772
  C      -10.316    -246.221      34.237
  C      -10.595    -244.941      33.728
  N       -9.888    -243.816      34.084
  N       -9.372    -246.691      35.134
  C       -9.593    -247.989      35.207
  N      -10.624    -248.376      34.395
  O       -5.868    -251.528      34.100
  O       -6.949    -253.846      34.303
  H      -10.623    -249.139      31.560
  H       -5.073    -252.078      33.967
  H      -13.111    -245.747      31.774
  H       -9.036    -248.687      35.819
  H      -12.185    -249.662      33.997
  H       -9.305    -250.337      33.112
  H      -10.213    -252.644      32.850
  H      -11.495    -252.500      35.332
  H       -9.291    -252.304      36.480
  H       -9.226    -253.467      35.125
  H      -10.143    -242.937      33.664
  H       -9.120    -243.904      34.735
  P      -12.704    -253.497      32.512
  C      -14.519    -252.896      30.723
  O      -14.230    -253.374      32.032
  O      -12.860    -254.289      33.901
  O      -11.784    -254.227      31.591
  H      -12.729    -255.245      33.747
  H      -15.579    -252.880      30.575
  H      -14.068    -253.542      30.000
  H      -14.128    -251.906      30.610

 6  7  8  9  10  11  12  13  14  15  25  28  32  33  34  35 0
 6-311+G(2d,p)
 ****
 36  37  40 0
 6-311+G(2d,p)
 ****
 1  2  3  4  5  16  17  18  19  20  21  22  23  24 0
 3-21G
 ****
 26  27  29  30  31  38  39 41  42  43  44  45  46  47  48 0
 3-21G
 ****


