%nproc=1
%NoSave
%Mem=1900MB
#P OB98/GEN NMR

erre ene a

0 1
  C      -90.401      77.996      20.316
  O      -89.096      77.458      20.269
  H      -90.891      77.642      21.228
  H      -90.984      77.658      19.455
  H      -90.367      79.087      20.339
  P      -88.162      77.824      19.017
  C      -88.528      77.759      16.453
  O      -89.099      77.561      17.737
  C      -89.597      77.618      15.373
  O      -90.156      76.288      15.359
  C      -90.801      78.537      15.539
  O      -90.536      79.893      15.224
  C      -91.760      77.892      14.555
  O      -91.380      78.236      13.212
  C      -91.514      76.392      14.843
  N      -92.471      75.838      15.800
  C      -93.827      76.055      15.528
  O      -94.174      76.692      14.534
  N      -94.764      75.573      16.410
  C      -94.382      74.951      17.482
  N      -95.353      74.502      18.324
  C      -92.963      74.718      17.817
  C      -92.073      75.178      16.943
  O      -86.824      77.159      18.980
  O      -88.080      79.422      19.031
  H      -90.444      77.984      13.110
  H      -87.502      79.702      18.280
  H      -92.696      74.219      18.737
  H      -91.010      75.052      17.123
  H      -91.557      75.806      13.918
  H      -92.796      78.211      14.690
  H      -91.226      78.448      16.547
  H      -89.105      77.771      14.403
  H      -96.315      74.676      18.068
  H      -87.731      77.020      16.316
  H      -95.145      74.074      19.217
  H      -88.098      78.762      16.384
  P      -91.177      81.005      16.192
  C      -93.618      81.759      16.734
  O      -92.754      80.986      15.918
  O      -90.682      82.378      15.542
  O      -90.802      80.883      17.636
  H      -89.903      82.725      16.017
  H      -94.629      81.626      16.409
  H      -93.352      82.792      16.657
  H      -93.526      81.442      17.752

 6  7  8  9  10  11  12  13  14  15  16  26  30  31  32  33  35 0
 6-311+G(2d,p)
 ****
 37  38 0
 6-311+G(2d,p)
 ****
 1  2  3  4  5  17  18  19  20  21  22  23  24  25 0
 3-21G
 ****
 27  28  29  34  36  39  40  41  42  43  44  45  46 0
 3-21G
 ****


