%nproc=1
%NoSave
%Mem=1900MB
#P OB98/GEN NMR

erre ene a

0 1
  C     -101.287     227.106    -304.956
  O     -100.920     228.275    -305.662
  H     -100.510     226.880    -304.222
  H     -101.379     226.264    -305.647
  H     -102.235     227.262    -304.432
  P     -101.958     228.799    -306.765
  C     -101.934     231.094    -305.530
  O     -102.709     230.052    -306.101
  C     -102.777     232.367    -305.391
  O     -103.544     232.551    -306.620
  C     -103.789     232.313    -304.235
  O     -103.995     233.651    -303.748
  C     -105.047     231.842    -304.945
  O     -106.183     232.084    -304.150
  C     -104.931     232.646    -306.234
  N     -109.478     233.184    -308.478
  C     -108.866     233.885    -307.498
  N     -107.646     233.684    -306.960
  C     -107.033     232.648    -307.559
  C     -107.528     231.839    -308.565
  C     -108.821     232.136    -309.028
  N     -109.458     231.413    -310.010
  N     -106.610     230.860    -308.899
  C     -105.577     231.082    -308.109
  N     -105.788     232.151    -307.286
  O     -103.076     227.654    -306.788
  O     -101.389     229.054    -308.119
  H     -107.004     231.833    -304.621
  H     -102.864     226.996    -307.476
  H     -109.434     234.719    -307.092
  H     -104.665     230.497    -308.086
  H     -105.169     233.707    -306.088
  H     -105.007     230.768    -305.144
  H     -103.474     231.667    -303.413
  H     -102.111     233.233    -305.301
  H     -101.073     231.284    -306.178
  H     -101.580     230.785    -304.541
  H     -110.397     231.676    -310.264
  H     -108.995     230.607    -310.406
  P     -102.960     234.259    -302.678
  C     -102.469     236.525    -303.878
  O     -101.961     235.293    -303.392
  O     -102.002     233.005    -302.394
  O     -103.568     234.742    -301.403
  H     -101.857     232.913    -301.433
  H     -101.675     237.089    -304.321
  H     -102.892     237.081    -303.068
  H     -103.224     236.335    -304.612

 6  7  8  9  10  11  12  13  14  15  25  28  32  33  34  35 0
 6-311+G(2d,p)
 ****
 36  37  40 0
 6-311+G(2d,p)
 ****
 1  2  3  4  5  16  17  18  19  20  21  22  23  24 0
 3-21G
 ****
 26  27  29  30  31  38  39 41  42  43  44  45  46  47  48 0
 3-21G
 ****


