%nproc=1
%NoSave
%Mem=1900MB
#P OB98/GEN NMR

erre ene a

0 1
  C      335.490      85.984    -481.603
  O      336.521      86.768    -482.178
  H      335.522      84.970    -482.014
  H      335.653      85.932    -480.520
  H      334.512      86.436    -481.790
  P      336.378      87.117    -483.737
  C      338.796      86.194    -484.061
  O      337.881      87.264    -484.291
  C      340.042      86.362    -484.931
  O      339.727      85.939    -486.288
  C      340.548      87.808    -485.003
  O      341.981      87.794    -484.998
  C      340.039      88.302    -486.345
  O      340.827      89.358    -486.865
  C      340.097      87.014    -487.174
  N      339.678      86.230    -492.211
  C      340.683      85.998    -491.334
  N      340.706      86.227    -490.010
  C      339.523      86.718    -489.585
  C      338.409      87.007    -490.357
  C      338.515      86.755    -491.735
  N      337.514      87.025    -492.636
  N      337.399      87.524    -489.563
  C      337.901      87.548    -488.347
  N      339.180      87.066    -488.312
  O      335.840      88.627    -483.700
  O      335.482      86.222    -484.525
  H      341.727      89.008    -487.066
  H      334.878      88.628    -483.519
  H      341.591      85.572    -491.769
  H      337.379      87.902    -487.459
  H      341.093      86.812    -487.578
  H      339.013      88.661    -486.241
  H      340.187      88.423    -484.175
  H      340.818      85.683    -484.558
  H      338.299      85.250    -484.302
  H      337.695      86.873    -493.616
  H      336.671      87.471    -492.306
  H      339.079      86.191    -483.002
  P      342.706      88.148    -483.603
  C      343.245      90.488    -484.585
  O      343.722      89.369    -483.848
  O      343.670      86.891    -483.354
  O      341.746      88.333    -482.467
  H      343.549      86.549    -482.452
  H      344.023      91.218    -484.669
  H      342.406      90.918    -484.078
  H      342.947      90.170    -485.562

 6  7  8  9  10  11  12  13  14  15  25  28  32  33  34  35 0
 6-311+G(2d,p)
 ****
 36  39  40 0
 6-311+G(2d,p)
 ****
 1  2  3  4  5  16  17  18  19  20  21  22  23  24 0
 3-21G
 ****
 26  27  29  30  31  37  38  41  42  43  44  45  46  47 0
 3-21G
 ****
 48 0
 3-21G
 ****


