%nproc=1
%NoSave
%Mem=1900MB
#P OB98/GEN NMR

erre ene a

0 1
  C        9.394    -181.331     -90.938
  O        8.981    -180.068     -90.451
  H        8.544    -181.816     -91.423
  H        9.729    -181.956     -90.106
  H       10.200    -181.214     -91.668
  P       10.108    -179.145     -89.780
  C       11.784    -179.415     -87.816
  O       10.765    -180.021     -88.600
  C       12.378    -180.420     -86.829
  O       11.337    -180.833     -85.891
  C       12.938    -181.697     -87.484
  O       14.083    -182.114     -86.732
  C       11.825    -182.708     -87.255
  O       12.292    -184.054     -87.328
  C       11.344    -182.274     -85.870
  N        8.735    -186.553     -85.359
  C       10.074    -186.341     -85.635
  N       10.836    -187.445     -85.802
  N       10.618    -185.158     -85.740
  C        9.743    -184.149     -85.517
  C        8.396    -184.220     -85.240
  C        7.801    -185.538     -85.153
  O        6.619    -185.785     -84.930
  N        7.850    -182.964     -85.106
  C        8.867    -182.137     -85.301
  N       10.033    -182.810     -85.552
  O        9.241    -178.047     -88.998
  O       11.077    -178.522     -90.729
  H       11.644    -184.623     -86.857
  H        9.117    -177.255     -89.554
  H        8.366    -187.484     -85.299
  H        8.809    -181.056     -85.275
  H       12.022    -182.603     -85.071
  H       11.033    -182.580     -88.004
  H       10.500    -188.387     -85.688
  H       13.209    -181.581     -88.541
  H       11.832    -187.315     -85.963
  H       13.151    -179.913     -86.236
  H       11.352    -178.576     -87.258
  H       12.570    -179.033     -88.479
  P       15.530    -181.629     -87.230
  C       17.222    -182.350     -89.074
  O       16.058    -182.674     -88.329
  O       16.466    -181.943     -85.967
  O       15.591    -180.187     -87.621
  H       17.225    -181.333     -85.955
  H       17.440    -183.143     -89.758
  H       18.048    -182.218     -88.406
  H       17.056    -181.444     -89.619

 6  7  8  9  10  11  12  13  14  15  26  29  33  34 0
 6-311+G(2d,p)
 ****
 36  38  39  40  41 0
 6-311+G(2d,p)
 ****
 1  2  3  4  5  16  17  18  19  20  21  22  23  24  25 0
 3-21G
 ****
 27  28  30  31  32  35  37  42  43  44  45  46  47 0
 3-21G
 ****
 48  49 0
 3-21G
 ****


