%nproc=1
%NoSave
%Mem=1900MB
#P OB98/GEN NMR

erre ene a

0 1
  C       65.563     414.451     515.224
  O       66.827     414.077     514.716
  P       68.053     415.105     514.768
  C       67.201     416.849     513.090
  O       68.143     415.818     513.337
  C       67.550     417.596     511.800
  O       68.936     417.994     511.813
  C       67.370     416.764     510.537
  O       66.004     416.661     510.184
  C       68.228     417.546     509.547
  O       67.497     418.670     509.022
  C       69.380     418.025     510.434
  N       73.249     416.869     507.315
  C       72.126     417.592     507.128
  N       71.119     417.823     508.001
  C       71.349     417.192     509.170
  C       72.435     416.404     509.499
  C       73.440     416.267     508.512
  N       74.617     415.581     508.715
  N       72.303     415.904     510.777
  C       71.156     416.388     511.217
  N       70.576     417.223     510.296
  O       69.335     414.542     515.291
  O       67.515     416.276     515.720
  H       68.064     419.098     508.357
  H       68.103     416.350     516.501
  H       72.019     418.054     506.147
  H       70.710     416.175     512.177
  H       69.655     419.068     510.219
  H       68.547     416.940     508.698
  H       67.814     415.768     510.683
  H       66.937     418.509     511.753
  H       67.209     417.549     513.935
  H       75.327     415.660     508.009
  H       74.900     415.388     509.676
  H       66.195     416.418     513.009
  P       65.345     415.214     509.982
  C       66.590     414.440     507.872
  O       65.367     414.917     508.409
  O       64.027     414.998     510.650
  O       66.455     414.206     510.551
  H       66.018     413.421     510.929
  H       67.284     415.276     507.750
  H       66.396     413.998     506.898
  H       67.030     413.684     508.522
  H       64.876     413.640     515.103
  H       65.203     415.306     514.691
  H       65.653     414.690     516.263

 3  4  5  6  7  8  9  10  11  12  22  25  29  30  31  32 0
 6-311+G(2d,p)
 ****
 33  36  37 0
 6-311+G(2d,p)
 ****
 1  2  13  14  15  16  17  18  19  20  21  23  24  26 0
 3-21G
 ****
 27  28  34  35  38  39  40  41  42  43  44  45  46  47  48 0
 3-21G
 ****


