%nproc=1
%NoSave
%Mem=1900MB
#P OB98/GEN NMR

erre ene a

0 1
  C      -85.945     376.657    -132.918
  O      -85.233     377.818    -132.528
  P      -83.821     378.121    -133.214
  C      -82.648     377.294    -131.042
  O      -82.715     377.232    -132.458
  C      -81.204     377.126    -130.565
  O      -80.765     375.754    -130.827
  C      -80.203     378.065    -131.259
  O      -79.189     378.398    -130.300
  C      -79.612     377.175    -132.343
  O      -78.363     377.647    -132.831
  C      -79.538     375.845    -131.578
  N      -79.363     374.691    -132.467
  C      -78.221     373.918    -132.285
  O      -77.367     374.140    -131.439
  N      -78.061     372.878    -133.177
  C      -78.863     372.612    -134.255
  O      -78.592     371.743    -135.078
  C      -80.051     373.465    -134.394
  C      -80.250     374.450    -133.510
  O      -83.490     379.620    -132.744
  O      -83.809     377.988    -134.700
  H      -77.717     377.554    -132.107
  H      -83.704     380.249    -133.459
  H      -77.248     372.297    -133.059
  H      -80.711     373.270    -135.229
  H      -81.101     375.115    -133.600
  H      -78.718     375.867    -130.849
  H      -80.307     377.111    -133.181
  H      -80.662     378.971    -131.662
  H      -81.171     377.271    -129.480
  H      -83.263     376.494    -130.624
  H      -83.057     378.246    -130.691
  P      -79.136     379.913    -129.758
  C      -77.071     380.624    -131.198
  O      -78.440     380.787    -130.910
  O      -77.998     379.783    -128.633
  O      -80.444     380.410    -129.234
  H      -77.243     379.248    -128.922
  H      -76.756     379.585    -131.072
  H      -76.480     381.261    -130.539
  H      -76.892     380.919    -132.233
  H      -86.862     376.600    -132.370
  H      -85.353     375.790    -132.713
  H      -86.158     376.704    -133.966

 3  4  5  6  7  8  9  10  11  12  13  23  28  29  30  31  32 0
 6-311+G(2d,p)
 ****
 33  34 0
 6-311+G(2d,p)
 ****
 1  2  14  15  16  17  18  19  20  21  22  24  25  26 0
 3-21G
 ****
 27  35  36  37  38  39  40  41  42  43  44  45 0
 3-21G
 ****


