%nproc=1
%NoSave
%Mem=1900MB
#P OB98/GEN NMR

erre ene a

0 1
  C      174.783    -337.890      64.172
  O      174.434    -336.781      63.372
  H      175.738    -337.681      64.659
  H      174.896    -338.775      63.540
  H      174.030    -338.081      64.941
  P      172.913    -336.617      62.903
  C      173.120    -334.104      62.359
  O      172.851    -335.404      61.851
  C      173.854    -333.233      61.337
  O      175.224    -333.670      61.200
  C      173.235    -333.332      59.941
  O      172.126    -332.486      59.706
  C      174.415    -332.948      59.051
  O      174.511    -331.520      58.912
  C      175.617    -333.493      59.829
  N      178.259    -335.837      56.138
  C      177.922    -334.501      56.252
  N      178.284    -333.705      55.222
  N      177.273    -334.008      57.272
  C      176.893    -334.941      58.176
  C      177.156    -336.293      58.164
  C      177.923    -336.820      57.056
  O      178.242    -337.996      56.903
  N      176.608    -336.921      59.257
  C      175.955    -335.967      59.887
  N      176.119    -334.742      59.284
  O      172.188    -335.992      64.190
  O      172.239    -337.881      62.465
  H      175.395    -331.304      58.567
  H      171.242    -336.227      64.184
  H      178.783    -336.155      55.343
  H      175.373    -336.103      60.791
  H      176.452    -332.783      59.825
  H      174.311    -333.357      58.042
  H      178.680    -334.059      54.367
  H      172.962    -334.369      59.718
  H      177.829    -332.792      55.143
  H      173.877    -332.195      61.694
  H      173.738    -334.234      63.249
  H      172.192    -333.622      62.676
  P      170.960    -332.950      58.715
  C      169.006    -332.038      60.175
  O      169.718    -331.965      58.957
  O      170.478    -334.335      59.357
  O      171.369    -333.111      57.292
  H      170.914    -335.081      58.906
  H      168.215    -331.317      60.170
  H      169.670    -331.834      60.989
  H      168.593    -333.019      60.289

 6  7  8  9  10  11  12  13  14  15  26  29  33  34 0
 6-311+G(2d,p)
 ****
 36  38  39  40  41 0
 6-311+G(2d,p)
 ****
 1  2  3  4  5  16  17  18  19  20  21  22  23  24  25 0
 3-21G
 ****
 27  28  30  31  32  35  37  42  43  44  45  46  47 0
 3-21G
 ****
 48  49 0
 3-21G
 ****


