%nproc=1
%NoSave
%Mem=1900MB
#P OB98/GEN NMR

erre ene a

0 1
  C     -895.320    -173.188      62.372
  O     -895.940    -171.924      62.536
  P     -894.980    -170.637      62.652
  C     -896.240    -168.976      61.099
  O     -895.110    -169.831      61.263
  C     -895.930    -167.867      60.089
  O     -894.840    -167.054      60.601
  C     -895.520    -168.368      58.697
  O     -896.030    -167.429      57.745
  C     -894.000    -168.293      58.775
  O     -893.360    -168.335      57.510
  C     -893.830    -167.009      59.564
  N     -889.110    -165.180      58.815
  C     -890.240    -165.093      58.077
  N     -891.460    -165.599      58.341
  C     -891.470    -166.247      59.525
  C     -890.390    -166.426      60.380
  C     -889.160    -165.854      59.986
  N     -888.010    -165.955      60.746
  N     -890.770    -167.157      61.487
  C     -892.050    -167.416      61.302
  N     -892.510    -166.866      60.138
  O     -893.510    -171.264      62.561
  O     -895.170    -169.820      63.891
  H     -893.560    -167.526      56.997
  H     -892.900    -170.811      63.165
  H     -890.150    -164.551      57.139
  H     -892.670    -168.007      61.960
  H     -894.030    -166.113      58.945
  H     -893.630    -169.152      59.350
  H     -895.910    -169.367      58.459
  H     -896.810    -167.216      60.005
  H     -896.480    -168.503      62.056
  H     -887.150    -165.695      60.291
  H     -888.020    -166.625      61.500
  H     -897.100    -169.568      60.782
  P     -897.250    -167.876      56.804
  C     -899.080    -166.422      57.876
  O     -898.550    -167.725      57.745
  O     -897.060    -169.471      56.776
  O     -897.310    -167.241      55.462
  H     -896.970    -169.832      57.676
  H     -900.000    -166.475      58.461
  H     -899.300    -165.997      56.892
  H     -898.370    -165.781      58.408
  H     -896.071    -173.948      62.309
  H     -894.683    -173.384      63.209
  H     -894.738    -173.186      61.474

 3  4  5  6  7  8  9  10  11  12  22  25  29  30  31  32 0
 6-311+G(2d,p)
 ****
 33  36  37 0
 6-311+G(2d,p)
 ****
 1  2  13  14  15  16  17  18  19  20  21  23  24  26 0
 3-21G
 ****
 27  28  34  35  38  39  40  41  42  43  44  45  46  47  48 0
 3-21G
 ****


