%nproc=1
%NoSave
%Mem=1900MB
#P OB98/GEN NMR

erre ene a

0 1
  C      867.160     391.400     665.345
  O      868.280     390.647     665.839
  P      868.400     390.164     667.371
  C      870.233     391.809     668.123
  O      869.887     390.452     667.892
  C      871.579     391.933     668.855
  O      871.473     391.375     670.185
  C      872.732     391.210     668.201
  O      873.208     391.917     667.060
  C      873.720     391.113     669.359
  O      874.468     392.339     669.492
  C      872.787     390.906     670.562
  N      872.743     389.514     670.993
  C      873.915     389.012     671.564
  O      874.938     389.701     671.630
  N      873.916     387.708     672.026
  C      872.863     386.964     671.856
  N      872.921     385.699     672.341
  C      871.643     387.437     671.184
  C      871.654     388.707     670.787
  O      867.925     388.760     667.596
  O      867.502     391.200     668.202
  H      875.090     392.375     668.739
  H      867.119     390.736     668.974
  H      870.794     386.776     671.038
  H      870.785     389.136     670.283
  H      873.109     391.527     671.409
  H      874.457     390.313     669.227
  H      872.425     390.199     667.908
  H      871.799     393.008     668.962
  H      873.768     385.401     672.808
  H      869.448     392.274     668.728
  H      872.153     385.042     672.263
  H      870.284     392.328     667.159
  P      872.800     391.432     665.591
  C      874.906     389.960     665.491
  O      874.137     390.967     664.850
  O      871.929     392.362     664.817
  O      872.049     390.031     665.859
  H      871.368     389.903     665.172
  H      875.531     389.474     664.741
  H      874.273     389.220     665.977
  H      875.555     390.437     666.241
  H      867.300     391.606     664.304
  H      867.084     392.321     665.884
  H      866.262     390.833     665.479

 3  4  5  6  7  8  9  10  11  12  13  23  27  28  29  30  32 0
 6-311+G(2d,p)
 ****
 34  35 0
 6-311+G(2d,p)
 ****
 1  2  14  15  16  17  18  19  20  21  22  24  25  26 0
 3-21G
 ****
 31  33  36  37  38  39  40  41  42  43  44  45  46 0
 3-21G
 ****


