%nproc=1
%NoSave
%Mem=1900MB
#P OB98/GEN NMR

erre ene a

0 1
  C     -700.958    -381.722     445.167
  O     -700.823    -380.812     444.074
  P     -700.093    -381.323     442.749
  C     -702.155    -380.820     441.127
  O     -700.781    -380.650     441.456
  C     -702.464    -380.024     439.859
  O     -702.510    -378.603     440.136
  C     -701.428    -380.224     438.744
  O     -701.711    -381.376     437.956
  C     -701.523    -378.905     437.989
  O     -702.679    -378.928     437.131
  C     -701.703    -377.912     439.141
  N     -700.491    -377.369     439.805
  C     -699.602    -376.573     439.091
  O     -699.747    -376.245     437.920
  N     -698.516    -376.101     439.796
  C     -698.308    -376.224     441.141
  O     -697.360    -375.726     441.729
  C     -699.363    -376.953     441.883
  C     -700.370    -377.507     441.183
  O     -700.511    -382.855     442.646
  O     -698.612    -381.135     442.764
  H     -703.366    -379.433     437.600
  H     -699.737    -383.427     442.749
  H     -697.831    -375.586     439.290
  H     -699.265    -377.045     442.943
  H     -701.155    -378.038     441.721
  H     -702.285    -377.037     438.808
  H     -700.668    -378.775     437.336
  H     -700.417    -380.290     439.182
  H     -703.452    -380.330     439.500
  H     -702.773    -380.479     441.956
  H     -702.353    -381.895     440.982
  P     -700.958    -382.751     438.248
  C     -703.141    -383.876     437.489
  O     -701.730    -383.857     437.383
  O     -700.736    -383.087     439.692
  O     -699.568    -382.588     437.438
  H     -698.849    -382.282     438.060
  H     -703.546    -384.563     436.745
  H     -703.546    -382.874     437.305
  H     -703.446    -384.217     438.485
  H     -701.464    -381.236     445.975
  H     -699.988    -382.036     445.491
  H     -701.523    -382.575     444.853

 3  4  5  6  7  8  9  10  11  12  13  23  28  29  30  31  32 0
 6-311+G(2d,p)
 ****
 33  34 0
 6-311+G(2d,p)
 ****
 1  2  14  15  16  17  18  19  20  21  22  24  25  26  27 0
 3-21G
 ****
 35  36  37  38  39  40  41  42  43  44  45 0
 3-21G
 ****


