%nproc=1
%NoSave
%Mem=1900MB
#P OB98/GEN NMR

erre ene a

0 1
  C      -24.415     295.558    -179.887
  O      -24.915     296.711    -180.577
  P      -24.841     296.890    -182.171
  C      -27.248     297.804    -182.447
  O      -25.855     298.062    -182.588
  C      -28.068     298.736    -183.344
  O      -27.972     300.101    -182.873
  C      -27.606     298.812    -184.793
  O      -27.938     297.648    -185.528
  C      -28.319     300.080    -185.265
  O      -29.664     299.800    -185.672
  C      -28.322     300.946    -183.993
  N      -27.431     302.092    -184.083
  C      -27.683     303.004    -185.110
  O      -28.570     302.782    -185.934
  N      -26.913     304.139    -185.184
  C      -25.910     304.293    -184.373
  N      -25.193     305.444    -184.483
  C      -25.527     303.286    -183.366
  C      -26.325     302.226    -183.273
  O      -25.044     295.620    -182.930
  O      -23.393     297.511    -182.459
  H      -23.109     297.270    -183.361
  H      -29.612     299.117    -186.373
  H      -24.662     303.436    -182.736
  H      -26.123     301.444    -182.546
  H      -29.340     301.300    -183.780
  H      -27.813     300.543    -186.120
  H      -26.521     298.973    -184.821
  H      -29.119     298.422    -183.294
  H      -25.490     306.116    -185.178
  H      -27.527     297.983    -181.403
  H      -24.412     305.671    -183.887
  H      -27.446     296.753    -182.686
  P      -26.794     296.534    -185.683
  C      -28.641     294.839    -185.008
  O      -27.515     295.112    -185.824
  O      -26.118     296.484    -184.234
  O      -25.781     296.833    -186.746
  H      -25.153     296.371    -184.325
  H      -29.276     294.115    -185.522
  H      -29.220     295.743    -184.806
  H      -28.303     294.405    -184.066
  H      -24.579     295.673    -178.836
  H      -23.367     295.456    -180.076
  H      -24.926     294.685    -180.235

 3  4  5  6  7  8  9  10  11  12  13  24  27  28  29  30  32 0
 6-311+G(2d,p)
 ****
 34  35 0
 6-311+G(2d,p)
 ****
 1  2  14  15  16  17  18  19  20  21  22  23  25  26 0
 3-21G
 ****
 31  33  36  37  38  39  40  41  42  43  44  45  46 0
 3-21G
 ****


