%nproc=1
%NoSave
%Mem=1900MB
#P OB98/GEN NMR

erre ene a

0 1
  C      387.788     -91.617      60.981
  O      387.030     -91.137      59.862
  P      387.033     -89.553      59.594
  C      385.807     -87.458      60.542
  O      385.948     -88.873      60.563
  C      384.497     -87.048      61.224
  O      383.357     -87.481      60.465
  C      384.322     -87.667      62.600
  O      385.104     -86.984      63.563
  C      382.817     -87.532      62.820
  O      382.482     -86.287      63.454
  C      382.249     -87.584      61.378
  N      381.463     -88.779      61.124
  C      380.160     -88.567      60.666
  O      379.731     -87.419      60.512
  N      379.368     -89.660      60.408
  C      379.831     -90.854      60.619
  N      378.992     -91.893      60.350
  C      381.192     -91.122      61.129
  C      381.944     -90.047      61.360
  O      386.366     -89.429      58.150
  O      388.393     -88.937      59.633
  H      382.681     -85.590      62.790
  H      386.746     -88.668      57.664
  H      381.527     -92.135      61.296
  H      382.959     -90.147      61.738
  H      381.606     -86.713      61.190
  H      382.430     -88.329      63.461
  H      384.596     -88.732      62.572
  H      384.476     -85.951      61.300
  H      378.068     -91.677      60.006
  H      385.822     -87.090      59.519
  H      379.249     -92.866      60.484
  H      386.676     -87.007      61.048
  P      385.769     -87.845      64.737
  C      384.748     -89.535      66.384
  O      384.535     -88.362      65.621
  O      386.391     -86.710      65.678
  O      386.779     -88.873      64.347
  H      386.916     -87.112      66.396
  H      383.923     -89.655      67.091
  H      385.681     -89.455      66.950
  H      384.787     -90.406      65.725
  H      387.699     -92.682      61.042
  H      387.414     -91.176      61.881
  H      388.817     -91.352      60.855

 3  4  5  6  7  8  9  10  11  12  13  21  23  27  28  29  30  32 0
 6-311+G(2d,p)
 ****
 34  35 0
 6-311+G(2d,p)
 ****
 1  2  14  15  16  17  18  19  20  22  24  25  26 0
 3-21G
 ****
 31  33  36  37  38  39  40  41  42  43  44  45  46 0
 3-21G
 ****


