%nproc=1
%NoSave
%Mem=1900MB
#P OB98/GEN NMR

erre ene a

0 1
  C     -224.724    -232.015     -56.119
  O     -224.208    -231.009     -56.972
  H     -225.081    -232.848     -56.735
  H     -225.564    -231.635     -55.532
  H     -223.940    -232.382     -55.450
  P     -223.763    -229.616     -56.316
  C     -221.802    -229.473     -57.998
  O     -222.959    -228.839     -57.463
  C     -221.240    -228.649     -59.151
  O     -220.952    -227.308     -58.713
  C     -219.930    -229.199     -59.696
  O     -220.154    -230.338     -60.503
  C     -219.388    -227.982     -60.422
  O     -220.006    -227.821     -61.704
  C     -219.803    -226.842     -59.461
  N     -218.724    -226.435     -58.568
  C     -217.777    -225.557     -59.107
  O     -217.881    -225.166     -60.269
  N     -216.724    -225.168     -58.317
  C     -216.632    -225.596     -57.098
  N     -215.567    -225.171     -56.369
  C     -217.617    -226.511     -56.486
  C     -218.624    -226.890     -57.271
  O     -223.051    -229.685     -55.000
  O     -225.133    -228.794     -56.215
  H     -219.549    -228.444     -62.302
  H     -225.574    -228.967     -55.362
  H     -217.504    -226.837     -55.464
  H     -219.393    -227.559     -56.899
  H     -220.131    -225.961     -60.027
  H     -218.313    -228.053     -60.579
  H     -219.246    -229.434     -58.873
  H     -222.002    -228.591     -59.939
  H     -214.910    -224.551     -56.833
  H     -222.110    -230.460     -58.353
  H     -215.440    -225.367     -55.390
  H     -221.039    -229.606     -57.221
  P     -219.240    -231.644     -60.339
  C     -221.110    -232.789     -61.699
  O     -219.705    -232.636     -61.515
  O     -219.213    -232.240     -58.973
  O     -217.803    -231.145     -60.845
  H     -217.369    -230.564     -60.174
  H     -221.292    -233.469     -62.505
  H     -221.545    -231.839     -61.929
  H     -221.547    -233.174     -60.802

 6  7  8  9  10  11  12  13  14  15  16  26  30  31  32  33  35 0
 6-311+G(2d,p)
 ****
 37  38 0
 6-311+G(2d,p)
 ****
 1  2  3  4  5  17  18  19  20  21  22  23  24  25 0
 3-21G
 ****
 27  28  29  34  36  39  40  41  42  43  44  45  46 0
 3-21G
 ****


