%nproc=1
%NoSave
%Mem=1900MB
#P OB98/GEN NMR

erre ene a

0 1
  C     -356.539     401.636    -899.210
  O     -357.221     401.595    -897.970
  H     -357.257     401.410    -900.000
  H     -355.749     400.874    -899.230
  H     -356.108     402.616    -899.400
  P     -356.437     402.035    -896.640
  C     -356.968     399.697    -895.670
  O     -355.967     400.693    -895.910
  C     -356.313     398.377    -895.260
  O     -355.280     398.019    -896.220
  C     -355.583     398.452    -893.900
  O     -356.532     398.387    -892.820
  C     -354.680     397.235    -894.000
  O     -355.387     396.026    -893.710
  C     -354.244     397.293    -895.510
  N     -352.926     397.898    -895.710
  C     -351.854     397.157    -895.310
  O     -351.943     396.031    -894.760
  N     -350.624     397.734    -895.500
  C     -350.388     398.996    -895.970
  O     -349.251     399.496    -896.050
  C     -351.587     399.756    -896.340
  C     -352.783     399.188    -896.220
  O     -357.151     403.027    -895.760
  O     -355.068     402.645    -897.220
  H     -355.857     396.176    -892.880
  H     -355.081     403.624    -897.140
  H     -349.797     397.212    -895.190
  H     -351.435     400.764    -896.740
  H     -353.671     399.735    -896.500
  H     -354.258     396.278    -895.930
  H     -353.824     397.297    -893.310
  H     -354.973     399.360    -893.850
  H     -357.076     397.596    -895.250
  H     -357.562     399.541    -896.590
  H     -357.639     400.056    -894.860
  P     -356.031     398.628    -891.310
  C     -357.165     396.455    -890.500
  O     -355.938     397.228    -890.560
  O     -356.752     399.704    -890.560
  O     -354.467     399.060    -891.510
  H     -354.332     399.969    -891.150
  H     -356.985     395.539    -889.976
  H     -357.499     396.238    -891.493
  H     -357.916     397.018    -889.986

 6  7  8  9  10  11  12  13  14  15  16  26  31  32  33  34  35 0
 6-311+G(2d,p)
 ****
 36  37 0
 6-311+G(2d,p)
 ****
 1  2  3  4  5  17  18  19  20  21  22  23  24  25 0
 3-21G
 ****
 27  28  29  30  38  39  40  41  42  43  44  45 0
 3-21G
 ****


