%nproc=1
%NoSave
%Mem=1900MB
#P OB98/GEN NMR

erre ene a

0 1
  C      364.207    -397.880      55.031
  O      364.258    -398.438      56.328
  P      365.169    -399.727      56.616
  C      363.190    -400.843      57.822
  O      364.199    -400.988      56.826
  C      362.192    -401.992      57.740
  O      361.532    -402.009      56.451
  C      362.817    -403.369      57.880
  O      363.211    -403.646      59.212
  C      361.696    -404.253      57.348
  O      360.700    -404.481      58.354
  C      361.128    -403.381      56.213
  N      361.550    -403.836      54.892
  C      360.901    -404.963      54.392
  O      360.078    -405.570      55.085
  N      361.201    -405.391      53.119
  C      362.159    -404.810      52.460
  N      362.375    -405.230      51.188
  C      362.979    -403.715      53.021
  C      362.610    -403.265      54.221
  O      366.208    -399.551      57.673
  O      365.849    -400.041      55.198
  H      366.813    -400.146      55.327
  H      359.935    -404.889      57.900
  H      363.810    -403.315      52.458
  H      363.140    -402.454      54.700
  H      360.032    -403.378      56.244
  H      362.058    -405.239      57.024
  H      363.690    -403.450      57.219
  H      361.430    -401.839      58.516
  H      361.779    -405.970      50.830
  H      362.676    -399.894      57.665
  H      362.847    -404.651      50.493
  H      363.670    -400.819      58.815
  P      364.467    -404.620      59.410
  C      363.789    -404.703      61.910
  O      364.247    -405.419      60.780
  O      365.668    -403.610      59.754
  O      364.794    -405.470      58.225
  H      366.499    -403.935      59.351
  H      363.363    -405.414      62.625
  H      363.021    -403.973      61.637
  H      364.629    -404.188      62.381
  H      363.553    -397.033      55.032
  H      363.841    -398.612      54.342
  H      365.188    -397.572      54.736

 3  4  5  6  7  8  9  10  11  12  13  24  27  28  29  30  32 0
 6-311+G(2d,p)
 ****
 34  35 0
 6-311+G(2d,p)
 ****
 1  2  14  15  16  17  18  19  20  21  22  23  25  26 0
 3-21G
 ****
 31  33  36  37  38  39  40  41  42  43  44  45  46 0
 3-21G
 ****


