%nproc=1
%NoSave
%Mem=1900MB
#P OB98/GEN NMR

erre ene a

0 1
  C      269.840      43.056    -464.816
  O      268.846      43.201    -465.810
  H      270.825      43.282    -465.238
  H      269.631      43.760    -464.006
  H      269.832      42.037    -464.409
  P      268.862      42.138    -467.012
  C      270.285      43.730    -468.497
  O      270.188      42.461    -467.864
  C      271.256      43.668    -469.678
  O      272.618      43.593    -469.160
  C      271.037      42.447    -470.589
  O      271.242      42.842    -471.947
  C      272.134      41.488    -470.154
  O      272.485      40.569    -471.185
  C      273.248      42.453    -469.768
  N      276.136      38.322    -468.888
  C      275.373      38.685    -469.943
  N      274.642      39.811    -470.102
  C      274.782      40.621    -469.037
  C      275.514      40.385    -467.884
  C      276.210      39.164    -467.828
  N      276.951      38.762    -466.737
  N      275.384      41.435    -466.996
  C      274.581      42.296    -467.609
  N      274.190      41.841    -468.842
  O      267.671      42.658    -467.951
  O      268.681      40.709    -466.617
  H      273.172      39.959    -470.841
  H      266.816      42.366    -467.585
  H      275.351      37.981    -470.775
  H      274.253      43.243    -467.205
  H      273.831      42.791    -470.637
  H      271.794      40.912    -469.282
  H      270.038      42.017    -470.479
  H      271.183      44.607    -470.243
  H      270.639      44.465    -467.764
  H      277.370      37.847    -466.754
  H      276.969      39.348    -465.911
  H      269.290      44.036    -468.852
  P      269.929      43.014    -472.854
  C      269.999      40.663    -473.957
  O      269.290      41.557    -473.108
  O      270.517      43.430    -474.283
  O      268.973      44.038    -472.344
  H      270.047      44.212    -474.626
  H      269.461      39.741    -474.033
  H      270.970      40.476    -473.547
  H      270.100      41.099    -474.929

 6  7  8  9  10  11  12  13  14  15  25  28  32  33  34  35 0
 6-311+G(2d,p)
 ****
 36  39  40 0
 6-311+G(2d,p)
 ****
 1  2  3  4  5  16  17  18  19  20  21  22  23  24 0
 3-21G
 ****
 26  27  29  30  31  37  38  41  42  43  44  45  46  47 0
 3-21G
 ****
 48 0
 3-21G
 ****


