%nproc=1
%NoSave
%Mem=1900MB
#P OB98/GEN NMR

erre ene a

0 1
  C      160.420    -492.116    -275.124
  O      161.361    -491.951    -276.182
  P      161.476    -493.144    -277.260
  C      162.105    -495.654    -277.065
  O      162.184    -494.358    -276.481
  C      162.280    -496.729    -275.996
  O      161.136    -496.735    -275.122
  C      162.379    -498.147    -276.548
  O      163.689    -498.444    -277.012
  C      162.038    -498.960    -275.304
  O      163.211    -499.095    -274.478
  C      160.986    -498.079    -274.606
  N      157.190    -500.980    -272.915
  C      158.457    -500.775    -272.389
  N      158.738    -501.420    -271.237
  N      159.363    -500.018    -272.951
  C      158.929    -499.410    -274.076
  C      157.695    -499.527    -274.692
  C      156.722    -500.410    -274.091
  O      155.609    -500.681    -274.548
  N      157.621    -498.741    -275.812
  C      158.787    -498.117    -275.855
  N      159.620    -498.511    -274.838
  O      162.619    -492.624    -278.248
  O      160.216    -493.467    -277.983
  H      162.939    -499.586    -273.671
  H      162.514    -493.037    -279.124
  H      156.527    -501.561    -272.435
  H      159.062    -497.376    -276.600
  H      161.163    -498.037    -273.528
  H      161.697    -499.979    -275.542
  H      158.044    -501.910    -270.692
  H      161.624    -498.328    -277.325
  H      159.645    -501.250    -270.815
  H      163.170    -496.484    -275.404
  H      162.902    -495.758    -277.809
  H      161.141    -495.758    -277.569
  P      163.899    -499.900    -277.660
  C      163.299    -502.206    -276.627
  O      163.858    -500.923    -276.427
  O      165.439    -499.886    -278.102
  O      162.991    -500.204    -278.806
  H      165.587    -500.507    -278.838
  H      163.525    -502.592    -277.625
  H      162.213    -502.158    -276.499
  H      163.713    -502.891    -275.886
  H      160.446    -491.257    -274.486
  H      160.669    -492.989    -274.558
  H      159.438    -492.225    -275.534

 3  4  5  6  7  8  9  10  11  12  23  26  30  31  33  0
 6-311+G(2d,p)
 ****
 35  36  37  38 0
 6-311+G(2d,p)
 ****
 1  2  13  14  15  16  17  18  19  20  21  22  24  25  27  28  29 0
 3-21G
 ****
 32  34  39  40  41  42  43  44  45  46  47  48  49 0
 3-21G
 ****


