%nproc=1
%NoSave
%Mem=1900MB
#P OB98/GEN NMR

erre ene a

0 1
  C     -356.542    -307.423       5.297
  O     -357.220    -308.027       4.195
  P     -357.370    -309.598       3.958
  C     -355.878    -311.491       2.899
  O     -356.136    -310.101       3.074
  C     -354.371    -311.784       2.961
  O     -353.759    -311.343       1.705
  C     -353.669    -311.028       4.097
  O     -352.706    -311.818       4.792
  C     -353.165    -309.769       3.403
  O     -352.121    -309.117       4.111
  C     -352.816    -310.290       2.009
  N     -350.984    -305.806       0.383
  C     -350.777    -306.457       1.587
  N     -349.997    -305.816       2.490
  N     -351.311    -307.608       1.891
  C     -352.131    -308.095       0.937
  C     -352.425    -307.541      -0.293
  C     -351.794    -306.286      -0.638
  O     -351.926    -305.684      -1.699
  N     -353.299    -308.334      -1.002
  C     -353.547    -309.351      -0.197
  N     -352.853    -309.256       0.994
  O     -358.727    -310.067       3.548
  O     -357.055    -310.231       5.411
  H     -351.795    -308.380       3.551
  H     -357.597    -311.045       5.475
  H     -350.532    -304.928       0.194
  H     -354.194    -310.185      -0.425
  H     -351.808    -310.711       1.972
  H     -354.006    -309.062       3.351
  H     -349.659    -304.871       2.370
  H     -354.387    -310.746       4.878
  H     -350.028    -306.185       3.443
  H     -354.229    -312.868       3.044
  H     -356.270    -311.747       1.907
  H     -356.427    -312.078       3.634
  P     -352.711    -312.273       6.327
  C     -351.869    -311.398       8.580
  O     -351.841    -311.237       7.176
  O     -351.818    -313.605       6.359
  O     -354.079    -312.550       6.885
  H     -352.366    -314.364       6.660
  H     -351.465    -310.490       9.052
  H     -351.242    -312.247       8.863
  H     -352.889    -311.557       8.938
  H     -356.594    -306.358       5.207
  H     -355.517    -307.731       5.298
  H     -357.007    -307.727       6.212

 3  4  5  6  7  8  9  10  11  12  23  26  30  31 0
 6-311+G(2d,p)
 ****
 33  35  36  37  38 0
 6-311+G(2d,p)
 ****
 1  2  13  14  15  16  17  18  19  20  21  22  24  25 0
 3-21G
 ****
 27  28  29  32  34  39  40  41  42  43  44  45  46  47  48  49 0
 3-21G
 ****


