%nproc=1
%NoSave
%Mem=1900MB
#P OB98/GEN NMR

erre ene a

0 1
  C      280.522    -100.923      42.425
  O      281.815    -101.341      42.023
  P      282.575    -100.612      40.819
  C      284.971    -100.226      41.821
  O      284.132    -100.936      40.937
  C      286.407    -100.270      41.287
  O      286.920    -101.619      41.350
  C      286.482     -99.805      39.834
  O      286.806     -98.426      39.768
  C      287.553    -100.707      39.252
  O      288.863    -100.206      39.569
  C      287.289    -102.034      40.007
  N      286.229    -102.924      39.495
  C      286.546    -103.909      38.567
  O      287.684    -104.116      38.151
  N      285.488    -104.650      38.098
  C      284.191    -104.527      38.503
  O      283.234    -105.017      37.913
  C      283.970    -103.668      39.670
  C      284.975    -102.902      40.090
  O      282.489     -99.065      41.221
  O      282.017    -100.869      39.458
  H      289.507    -100.866      39.257
  H      281.761     -98.626      40.742
  H      285.690    -105.272      37.324
  H      282.983    -103.649      40.113
  H      284.823    -102.229      40.930
  H      288.204    -102.630      40.081
  H      287.495    -100.737      38.165
  H      285.534    -100.010      39.322
  H      287.042     -99.641      41.921
  H      284.921    -100.668      42.822
  H      284.633     -99.187      41.907
  P      286.456     -97.594      38.448
  C      285.912     -95.471      39.780
  O      286.762     -96.064      38.819
  O      285.106     -97.852      37.863
  O      287.631     -97.995      37.436
  H      287.318     -98.701      36.831
  H      286.332     -94.506      40.072
  H      285.828     -96.109      40.664
  H      284.922     -95.309      39.345
  H      280.188    -101.531      43.240
  H      279.843    -101.023      41.604
  H      280.558     -99.900      42.735

 3  4  5  6  7  8  9  10  11  12  13  23  28  29  30  31  32 0
 6-311+G(2d,p)
 ****
 33  34 0
 6-311+G(2d,p)
 ****
 1  2  14  15  16  17  18  19  20  21  22  24  25  26  27 0
 3-21G
 ****
 35  36  37  38  39  40  41  42  43  44  45 0
 3-21G
 ****


