%nproc=1
%NoSave
%Mem=1900MB
#P OB98/GEN NMR

erre ene a

0 1
  C     -376.058      92.098      23.693
  O     -375.650      90.742      23.637
  P     -374.529      90.245      24.669
  C     -375.911      88.353      25.787
  O     -375.271      89.614      25.944
  C     -375.898      87.573      27.103
  O     -374.557      87.583      27.662
  C     -376.840      88.144      28.165
  O     -377.369      87.072      28.959
  C     -375.917      88.952      29.054
  O     -376.468      89.126      30.359
  C     -374.652      88.099      29.007
  N     -371.878      89.930      32.813
  C     -372.880      88.979      32.836
  N     -373.246      88.519      34.051
  N     -373.464      88.516      31.763
  C     -372.996      89.071      30.615
  C     -371.998      90.007      30.466
  C     -371.369      90.520      31.662
  O     -370.498      91.382      31.713
  N     -371.783      90.300      29.147
  C     -372.672      89.577      28.498
  N     -373.456      88.841      29.347
  O     -373.927      91.621      25.227
  O     -373.458      89.402      24.065
  H     -377.380      89.462      30.240
  H     -373.051      91.783      24.834
  H     -371.467      90.263      33.671
  H     -372.809      89.567      27.423
  H     -374.720      87.241      29.684
  H     -375.751      89.946      28.620
  H     -372.881      88.886      34.919
  H     -377.666      88.744      27.766
  H     -374.007      87.858      34.098
  H     -376.146      86.525      26.888
  H     -375.382      87.778      25.025
  H     -376.939      88.502      25.449
  P     -378.959      86.856      28.874
  C     -378.782      85.879      26.468
  O     -379.320      86.875      27.314
  O     -379.551      88.238      29.417
  O     -379.458      85.679      29.646
  H     -380.443      88.100      29.785
  H     -379.601      85.285      26.053
  H     -378.089      85.213      26.993
  H     -378.244      86.367      25.647
  H     -376.806      92.277      22.949
  H     -375.215      92.732      23.511
  H     -376.461      92.309      24.661

 3  4  5  6  7  8  9  10  11  12  23  26  30  31 0
 6-311+G(2d,p)
 ****
 33  35  36  37  38 0
 6-311+G(2d,p)
 ****
 1  2  13  14  15  16  17  18  19  20  21  22  24  25 0
 3-21G
 ****
 27  28  29  32  34  39  40  41  42  43  44  45  46  47  48  49 0
 3-21G
 ****


