%nproc=1
%NoSave
%Mem=1900MB
#P OB98/GEN NMR

erre ene a

0 1
  C      255.534      57.201    -517.300
  O      256.518      56.741    -518.235
  P      256.071      56.667    -519.782
  C      256.666      54.144    -519.869
  O      256.818      55.423    -520.472
  C      257.459      53.061    -520.622
  O      256.906      52.842    -521.946
  C      258.949      53.396    -520.786
  O      259.665      52.164    -520.726
  C      259.010      53.941    -522.207
  O      260.334      53.864    -522.723
  C      257.968      53.029    -522.907
  N      257.486      53.592    -524.159
  C      258.322      53.485    -525.274
  O      259.460      52.999    -525.160
  N      257.886      53.962    -526.491
  C      256.728      54.547    -526.573
  N      256.349      54.996    -527.789
  C      255.834      54.731    -525.404
  C      256.260      54.230    -524.261
  O      256.777      57.950    -520.434
  O      254.585      56.707    -519.971
  H      260.301      54.019    -523.695
  H      256.133      58.461    -520.952
  H      254.880      55.245    -525.516
  H      255.678      54.324    -523.350
  H      258.408      52.046    -523.124
  H      258.684      54.988    -522.236
  H      259.318      54.090    -520.033
  H      257.356      52.131    -520.061
  H      256.983      54.852    -528.570
  H      255.608      53.875    -519.859
  H      255.475      55.473    -527.972
  H      256.979      54.206    -518.827
  P      260.482      51.831    -519.396
  C      262.496      51.103    -520.828
  O      261.553      50.712    -519.829
  O      259.416      50.916    -518.592
  O      260.985      52.958    -518.557
  H      259.768      50.708    -517.706
  H      263.230      50.303    -520.942
  H      263.011      52.014    -520.522
  H      261.985      51.247    -521.788
  H      255.952      57.204    -516.315
  H      254.686      56.549    -517.326
  H      255.230      58.193    -517.561

 3  4  5  6  7  8  9  10  11  12  13  21  23  27  28  29  30  32 0
 6-311+G(2d,p)
 ****
 34  35 0
 6-311+G(2d,p)
 ****
 1  2  14  15  16  17  18  19  20  22  24  25  26 0
 3-21G
 ****
 31  33  36  37  38  39  40  41  42  43  44  45  46 0
 3-21G
 ****


