%nproc=1
%NoSave
%Mem=1900MB
#P OB98/GEN NMR

erre ene a

0 1
  C      240.414    -538.744      95.591
  O      239.888    -537.702      96.398
  P      238.372    -537.745      96.921
  C      237.437    -536.683      94.773
  O      237.643    -536.529      96.172
  C      236.419    -535.663      94.273
  O      235.160    -535.905      94.946
  C      236.749    -534.198      94.564
  O      237.613    -533.587      93.616
  C      235.365    -533.568      94.456
  O      235.015    -533.395      93.071
  C      234.473    -534.639      95.098
  N      231.016    -533.057      98.521
  C      230.951    -533.232      97.182
  N      231.922    -533.639      96.338
  C      233.048    -533.917      97.013
  C      233.266    -533.795      98.375
  C      232.183    -533.341      99.147
  N      232.245    -533.188     100.515
  N      234.559    -534.157      98.700
  C      235.103    -534.506      97.551
  N      234.228    -534.386      96.506
  O      238.231    -537.776      98.403
  O      237.747    -539.031      96.209
  H      235.649    -532.753      92.695
  H      236.919    -539.294      96.660
  H      229.988    -533.008      96.726
  H      236.122    -534.844      97.430
  H      233.505    -534.733      94.598
  H      235.307    -532.583      94.928
  H      237.126    -534.064      95.587
  H      236.264    -535.823      93.200
  H      237.051    -537.693      94.594
  H      231.385    -532.986     101.000
  H      233.055    -533.552     100.999
  H      238.387    -536.582      94.247
  P      239.086    -533.185      94.121
  C      237.966    -531.218      95.442
  O      238.985    -531.645      94.562
  O      240.178    -533.508      93.162
  O      239.209    -533.959      95.514
  H      238.617    -533.646      96.218
  H      238.170    -530.189      95.737
  H      237.939    -531.842      96.335
  H      236.995    -531.256      94.936
  H      241.434    -538.528      95.350
  H      239.843    -538.820      94.689
  H      240.362    -539.670      96.125

 3  4  5  6  7  8  9  10  11  12  22  25  29  30  31  32 0
 6-311+G(2d,p)
 ****
 33  36  37 0
 6-311+G(2d,p)
 ****
 1  2  13  14  15  16  17  18  19  20  21  23  24  26 0
 3-21G
 ****
 27  28  34  35  38  39  40  41  42  43  44  45  46  47  48 0
 3-21G
 ****


