%nproc=1
%NoSave
%Mem=1900MB
#P OB98/GEN NMR

erre ene a

0 1
  C      414.476     -72.529     225.314
  O      415.525     -73.399     225.681
  P      415.546     -74.217     227.054
  C      414.738     -76.590     226.369
  O      414.405     -75.346     226.984
  C      414.480     -77.798     227.283
  O      415.256     -77.659     228.491
  C      413.010     -77.827     227.714
  O      412.031     -78.404     226.870
  C      413.027     -78.369     229.138
  O      412.731     -79.767     229.199
  C      414.461     -78.106     229.602
  N      417.009     -76.685     233.749
  C      417.387     -77.569     232.754
  N      418.499     -78.296     233.003
  N      416.724     -77.731     231.640
  C      415.586     -77.003     231.579
  C      415.114     -76.084     232.493
  C      415.877     -75.886     233.700
  O      415.533     -75.175     234.643
  N      413.884     -75.591     232.135
  C      413.590     -76.237     231.024
  N      414.572     -77.132     230.670
  O      415.686     -73.418     228.311
  O      416.896     -75.086     226.882
  H      412.926     -80.075     230.101
  H      417.297     -75.182     227.768
  H      417.520     -76.659     234.621
  H      412.673     -76.117     230.460
  H      414.928     -79.029     229.966
  H      412.268     -77.866     229.753
  H      418.949     -78.306     233.905
  H      412.690     -76.786     227.817
  H      418.707     -79.067     232.378
  H      414.820     -78.724     226.816
  H      415.792     -76.542     226.080
  H      414.158     -76.706     225.450
  P      410.451     -78.187     226.964
  C      410.204     -76.309     225.245
  O      410.128     -76.659     226.616
  O      410.130     -78.270     228.532
  O      409.635     -79.189     226.214
  H      409.195     -78.501     228.664
  H      410.268     -75.223     225.157
  H      409.301     -76.653     224.727
  H      411.084     -76.759     224.772
  H      414.687     -72.100     224.357
  H      414.387     -71.750     226.042
  H      413.559     -73.077     225.264

 3  4  5  6  7  8  9  10  11  12  23  26  30  31 0
 6-311+G(2d,p)
 ****
 33  35  36  37  38 0
 6-311+G(2d,p)
 ****
 1  2  13  14  15  16  17  18  19  20  21  22  24  25 0
 3-21G
 ****
 27  28  29  32  34  39  40  41  42  43  44  45  46  47  48  49 0
 3-21G
 ****


