%nproc=1
%NoSave
%Mem=1900MB
#P OB98/GEN NMR

erre ene a

0 1
  C       19.679     538.284     -88.055
  O       20.664     537.877     -88.983
  H       19.726     539.365     -87.902
  H       18.692     538.029     -88.452
  H       19.821     537.766     -87.100
  P       22.190     538.195     -88.602
  C       22.422     539.819     -90.622
  O       22.884     538.637     -89.981
  C       22.307     539.568     -92.124
  O       23.624     539.438     -92.706
  C       21.571     538.279     -92.474
  O       20.160     538.429     -92.447
  C       22.075     538.040     -93.887
  O       21.397     538.920     -94.798
  C       23.555     538.434     -93.760
  N       26.518     534.696     -95.619
  C       25.819     535.684     -96.225
  N       25.074     536.653     -95.659
  C       25.090     536.546     -94.320
  C       25.763     535.599     -93.562
  C       26.499     534.630     -94.268
  N       27.184     533.603     -93.652
  N       25.525     535.799     -92.216
  C       24.742     536.858     -92.169
  N       24.427     537.326     -93.416
  O       22.823     536.751     -88.327
  O       22.396     539.149     -87.472
  H       20.490     538.575     -94.911
  H       23.683     536.836     -87.873
  H       25.870     535.690     -97.311
  H       24.370     537.318     -91.259
  H       23.950     538.890     -94.678
  H       21.894     537.018     -94.235
  H       21.892     537.443     -91.836
  H       21.823     540.434     -92.585
  H       23.135     540.630     -90.442
  H       27.558     532.880     -94.249
  H       27.058     533.461     -92.664
  H       21.446     540.099     -90.214
  P       19.306     537.284     -91.710
  C       18.994     536.155     -94.026
  O       18.375     536.620     -92.833
  O       18.272     538.134     -90.828
  O       20.113     536.340     -90.886
  H       18.049     537.659     -90.004
  H       18.251     535.741     -94.675
  H       19.716     535.403     -93.784
  H       19.481     536.972     -94.517

 6  7  8  9  10  11  12  13  14  15  25  28  32  33  34  35 0
 6-311+G(2d,p)
 ****
 36  39  40 0
 6-311+G(2d,p)
 ****
 1  2  3  4  5  16  17  18  19  20  21  22  23  24 0
 3-21G
 ****
 26  27  29  30  31  37  38  41  42  43  44  45  46  47 0
 3-21G
 ****
 48 0
 3-21G
 ****


