%nproc=1
%NoSave
%Mem=1900MB
#P OB98/GEN NMR

erre ene a

0 1
  C       28.960     -75.264     -93.075
  O       29.933     -74.405     -92.513
  H       29.068     -75.295     -94.162
  H       29.108     -76.270     -92.676
  H       27.955     -74.923     -92.809
  P       29.868     -72.863     -92.952
  C       28.143     -71.985     -91.223
  O       28.394     -72.353     -92.571
  C       26.942     -71.048     -91.150
  O       26.454     -70.968     -89.796
  C       27.227     -69.610     -91.571
  O       27.238     -69.466     -92.983
  C       26.040     -68.893     -90.945
  O       24.874     -69.071     -91.769
  C       25.871     -69.650     -89.621
  N       25.605     -65.735     -86.338
  C       24.761     -66.163     -87.303
  N       24.890     -67.226     -88.122
  C       26.027     -67.890     -87.855
  C       26.974     -67.591     -86.891
  C       26.734     -66.452     -86.108
  N       27.639     -65.985     -85.168
  N       28.014     -68.500     -86.928
  C       27.709     -69.318     -87.913
  N       26.514     -68.996     -88.499
  O       29.841     -72.950     -94.553
  O       30.994     -72.016     -92.463
  H       24.161     -68.544     -91.361
  H       30.745     -72.817     -94.896
  H       23.865     -65.567     -87.438
  H       28.320     -70.151     -88.237
  H       24.818     -69.797     -89.360
  H       26.201     -67.815     -90.838
  H       28.152     -69.236     -91.118
  H       26.139     -71.480     -91.763
  H       29.023     -71.478     -90.815
  H       27.600     -64.979     -85.028
  H       28.560     -66.400     -85.232
  H       27.953     -72.893     -90.642
  P       27.708     -68.056     -93.585
  C       30.231     -68.538     -93.893
  O       29.239     -67.857     -93.137
  O       26.908     -67.000     -92.687
  O       27.425     -67.856     -95.034
  H       26.377     -66.413     -93.260
  H       31.198     -68.320     -93.491
  H       30.187     -68.215     -94.912
  H       30.054     -69.592     -93.846

 6  7  8  9  10  11  12  13  14  15  25  28  32  33  34  35 0
 6-311+G(2d,p)
 ****
 36  39  40 0
 6-311+G(2d,p)
 ****
 1  2  3  4  5  16  17  18  19  20  21  22  23  24 0
 3-21G
 ****
 26  27  29  30  31  37  38  41  42  43  44  45  46  47  48 0
 3-21G
 ****


