%nproc=1
%NoSave
%Mem=1900MB
#P OB98/GEN NMR

erre ene a

0 1
  C      228.591     -63.962    1036.532
  O      228.953     -63.666    1037.864
  H      227.856     -64.770    1036.537
  H      229.469     -64.293    1035.968
  H      228.141     -63.085    1036.044
  P      229.901     -62.407    1038.150
  C      232.345     -61.751    1037.610
  O      231.342     -62.767    1037.542
  C      233.618     -62.247    1036.931
  O      233.433     -62.309    1035.499
  C      234.821     -61.327    1037.152
  O      235.358     -61.491    1038.448
  C      235.734     -61.770    1036.021
  O      236.437     -62.973    1036.374
  C      234.720     -62.040    1034.886
  N      234.628     -60.939    1033.930
  C      235.410     -61.048    1032.782
  O      236.167     -62.002    1032.576
  N      235.316     -60.019    1031.888
  C      234.615     -58.859    1032.087
  O      234.628     -57.925    1031.287
  C      233.825     -58.786    1033.317
  C      233.873     -59.808    1034.178
  O      229.919     -61.915    1039.558
  O      229.357     -61.291    1037.138
  H      237.043     -63.161    1035.625
  H      228.842     -60.628    1037.645
  H      235.884     -60.077    1031.057
  H      233.254     -57.886    1033.502
  H      233.302     -59.769    1035.096
  H      234.998     -62.954    1034.338
  H      236.477     -61.020    1035.771
  H      234.530     -60.276    1036.979
  H      233.836     -63.261    1037.293
  H      232.543     -61.536    1038.663
  H      231.957     -60.843    1037.129
  P      236.333     -60.372    1039.056
  C      238.392     -59.141    1038.127
  O      237.688     -60.372    1038.190
  O      236.537     -60.437    1040.531
  O      235.628     -58.994    1038.644
  H      235.401     -58.492    1039.453
  H      239.270     -59.263    1037.528
  H      238.673     -58.840    1039.115
  H      237.764     -58.393    1037.691

 6  7  8  9  10  11  12  13  14  15  16  26  31  32  33  34  35 0
 6-311+G(2d,p)
 ****
 36  37 0
 6-311+G(2d,p)
 ****
 1  2  3  4  5  17  18  19  20  21  22  23  24  25 0
 3-21G
 ****
 27  28  29  30  38  39  40  41  42  43  44  45 0
 3-21G
 ****


