%nproc=1
%NoSave
%Mem=1900MB
#P OB98/GEN NMR

erre ene a

0 1
  C      266.486    -369.946    -192.721
  O      267.415    -369.528    -193.734
  P      268.967    -369.865    -193.505
  C      269.185    -372.441    -193.799
  O      269.346    -371.154    -194.390
  C      269.559    -373.563    -194.787
  O      268.751    -373.487    -195.990
  C      271.027    -373.501    -195.246
  O      271.460    -374.843    -195.522
  C      270.932    -372.737    -196.555
  O      272.099    -372.936    -197.362
  C      269.635    -373.312    -197.119
  N      266.554    -373.189    -201.113
  C      266.982    -374.269    -200.346
  N      266.482    -375.473    -200.680
  N      267.819    -374.156    -199.349
  C      268.198    -372.870    -199.114
  C      267.855    -371.729    -199.799
  C      266.945    -371.869    -200.918
  O      266.532    -370.957    -201.643
  N      268.466    -370.618    -199.275
  C      269.192    -371.092    -198.274
  N      269.030    -372.444    -198.114
  O      268.987    -370.429    -191.997
  O      269.871    -368.686    -193.661
  H      272.111    -373.884    -197.619
  H      269.414    -369.767    -191.412
  H      265.914    -373.333    -201.880
  H      269.838    -370.501    -197.641
  H      269.782    -374.296    -197.590
  H      270.839    -371.663    -196.347
  H      265.797    -375.622    -201.404
  H      271.714    -373.041    -194.533
  H      266.756    -376.270    -200.112
  H      269.358    -374.527    -194.311
  H      268.150    -372.578    -193.477
  H      269.789    -372.500    -192.891
  P      271.929    -375.730    -194.266
  C      269.859    -376.641    -192.982
  O      270.771    -376.821    -194.045
  O      271.751    -374.735    -193.014
  O      273.318    -376.266    -194.361
  H      272.344    -374.994    -192.292
  H      268.908    -376.274    -193.384
  H      270.233    -375.929    -192.241
  H      269.701    -377.604    -192.482
  H      265.495    -369.657    -193.004
  H      266.740    -369.483    -191.791
  H      266.530    -371.010    -192.614

 3  4  5  6  7  8  9  10  11  12  23  26  30  31 0
 6-311+G(2d,p)
 ****
 33  35  36  37  38 0
 6-311+G(2d,p)
 ****
 1  2  13  14  15  16  17  18  19  20  21  22  24  25 0
 3-21G
 ****
 27  28  29  32  34  39  40  41  42  43  44  45  46  47  48  49 0
 3-21G
 ****


