%nproc=1
%NoSave
%Mem=1900MB
#P OB98/GEN NMR

erre ene a

0 1
  C      -97.194    -125.204      53.876
  O      -96.324    -124.385      54.629
  H      -96.860    -126.241      53.964
  H      -97.176    -124.921      52.820
  H      -98.213    -125.133      54.264
  P      -96.531    -122.795      54.567
  C      -95.909    -120.993      52.813
  O      -95.829    -122.359      53.188
  C      -95.016    -120.723      51.604
  O      -95.011    -121.849      50.702
  C      -95.445    -119.538      50.742
  O      -95.162    -118.281      51.332
  C      -94.608    -119.800      49.500
  O      -93.242    -119.423      49.752
  C      -94.742    -121.337      49.366
  N      -95.800    -121.738      48.441
  C      -95.751    -123.054      47.964
  O      -94.852    -123.815      48.320
  N      -96.702    -123.468      47.063
  C      -97.611    -122.636      46.659
  N      -98.501    -123.082      45.730
  C      -97.711    -121.248      47.148
  C      -96.782    -120.867      48.023
  O      -96.103    -122.025      55.774
  O      -98.081    -122.610      54.211
  H      -93.234    -118.460      49.896
  H      -98.263    -121.639      54.173
  H      -98.483    -120.593      46.773
  H      -96.778    -119.855      48.416
  H      -93.796    -121.782      49.036
  H      -94.945    -119.237      48.625
  H      -96.503    -119.614      50.472
  H      -93.989    -120.602      51.972
  H      -98.376    -124.025      45.386
  H      -95.602    -120.385      53.670
  H      -99.047    -122.436      45.169
  H      -96.938    -120.735      52.545
  P      -95.907    -116.988      50.736
  C      -95.834    -115.733      48.453
  O      -95.222    -116.675      49.319
  O      -95.382    -115.809      51.678
  O      -97.400    -117.064      50.688
  H      -96.001    -115.646      52.416
  H      -95.255    -115.642      47.558
  H      -95.888    -114.782      48.941
  H      -96.821    -116.064      48.207

 6  7  8  9  10  11  12  13  14  15  16  26  30  31  32  33  35 0
 6-311+G(2d,p)
 ****
 37  38 0
 6-311+G(2d,p)
 ****
 1  2  3  4  5  17  18  19  20  21  22  23  24  25 0
 3-21G
 ****
 27  28  29  34  36  39  40  41  42  43  44  45  46 0
 3-21G
 ****


