%nproc=1
%NoSave
%Mem=1900MB
#P OB98/GEN NMR

erre ene a

0 1
  C      154.883      57.065    -170.322
  O      154.531      55.893    -169.572
  P      153.813      54.699    -170.366
  C      152.423      54.134    -168.229
  O      153.238      53.652    -169.296
  C      153.014      53.709    -166.882
  O      154.064      54.601    -166.472
  C      151.996      53.735    -165.748
  O      151.152      52.599    -165.800
  C      152.895      53.779    -164.519
  O      153.219      52.461    -164.052
  C      154.162      54.507    -165.034
  N      154.342      55.818    -164.430
  C      154.890      55.829    -163.138
  O      155.166      54.763    -162.578
  N      155.081      57.036    -162.514
  C      154.741      58.133    -163.114
  N      154.951      59.299    -162.443
  C      154.132      58.167    -164.463
  C      153.961      56.988    -165.056
  O      155.037      53.914    -171.035
  O      152.826      55.161    -171.391
  H      153.823      52.081    -164.723
  H      154.765      53.533    -171.890
  H      153.853      59.109    -164.920
  H      153.518      56.916    -166.048
  H      155.057      53.912    -164.820
  H      152.407      54.302    -163.684
  H      151.398      54.658    -165.805
  H      153.433      52.697    -166.987
  H      155.362      59.237    -161.518
  H      151.405      53.749    -168.329
  H      154.711      60.215    -162.814
  H      152.356      55.226    -168.306
  P      149.574      52.835    -165.783
  C      148.832      51.418    -163.766
  O      148.953      51.484    -165.177
  O      149.196      52.703    -167.344
  O      149.075      54.117    -165.199
  H      148.258      52.926    -167.479
  H      148.220      50.551    -163.506
  H      148.353      52.320    -163.385
  H      149.826      51.292    -163.318
  H      155.351      57.776    -169.674
  H      154.000      57.496    -170.746
  H      155.560      56.797    -171.106

 3  4  5  6  7  8  9  10  11  12  13  21  23  27  28  29  30  32 0
 6-311+G(2d,p)
 ****
 34  35 0
 6-311+G(2d,p)
 ****
 1  2  14  15  16  17  18  19  20  22  24  25  26 0
 3-21G
 ****
 31  33  36  37  38  39  40  41  42  43  44  45  46 0
 3-21G
 ****


