%nproc=1
%NoSave
%Mem=1900MB
#P OB98/GEN NMR

erre ene a

0 1
  C     -423.777     531.252     400.691
  O     -424.416     529.977     400.626
  P     -425.280     529.482     401.882
  C     -423.921     527.686     403.148
  O     -424.916     527.940     402.165
  C     -422.973     526.582     402.685
  O     -421.909     527.101     401.844
  C     -422.265     525.875     403.834
  O     -423.144     525.002     404.515
  C     -421.112     525.201     403.111
  O     -421.533     523.964     402.510
  C     -420.767     526.237     402.010
  N     -419.555     526.998     402.293
  C     -418.357     526.386     401.944
  O     -418.347     525.248     401.462
  N     -417.178     527.070     402.163
  C     -417.213     528.253     402.685
  N     -416.023     528.888     402.886
  C     -418.465     528.930     403.086
  C     -419.589     528.246     402.874
  O     -426.732     529.792     401.831
  O     -424.571     530.226     403.120
  H     -420.728     523.563     402.128
  H     -425.234     530.392     403.814
  H     -418.442     529.924     403.518
  H     -420.560     528.662     403.133
  H     -420.633     525.730     401.045
  H     -420.283     524.959     403.791
  H     -421.870     526.626     404.541
  H     -423.548     525.854     402.111
  H     -415.179     528.404     402.613
  H     -424.397     527.401     404.092
  H     -415.958     529.830     403.232
  H     -423.375     528.619     403.348
  P     -422.946     524.821     406.103
  C     -422.887     522.225     406.256
  O     -423.609     523.423     406.519
  O     -423.955     525.902     406.720
  O     -421.550     525.038     406.583
  H     -423.579     526.265     407.546
  H     -423.309     521.415     406.865
  H     -421.827     522.345     406.507
  H     -422.998     521.958     405.197
  H     -423.245     531.431     399.780
  H     -423.092     531.266     401.513
  H     -424.515     532.014     400.829

 3  4  5  6  7  8  9  10  11  12  13  23  27  28  29  30  32 0
 6-311+G(2d,p)
 ****
 34  35 0
 6-311+G(2d,p)
 ****
 1  2  14  15  16  17  18  19  20  21  22  24  25  26 0
 3-21G
 ****
 31  33  36  37  38  39  40  41  42  43  44  45  46 0
 3-21G
 ****


