%nproc=1
%NoSave
%Mem=1900MB
#P OB98/GEN NMR

erre ene a

0 1
  C      114.097    -122.154     293.959
  O      112.752    -122.515     294.210
  H      114.730    -122.492     294.781
  H      114.425    -122.641     293.036
  H      114.188    -121.069     293.839
  P      112.018    -121.770     295.427
  C      111.456    -119.745     293.895
  O      110.961    -120.766     294.749
  C      110.380    -118.685     293.651
  O      109.084    -119.340     293.601
  C      110.318    -117.614     294.746
  O      110.050    -116.347     294.139
  C      109.132    -118.041     295.594
  O      108.549    -116.951     296.299
  C      108.221    -118.671     294.545
  N      104.319    -119.163     297.802
  C      104.975    -118.080     297.336
  N      106.002    -118.036     296.462
  C      106.309    -119.271     296.027
  C      105.731    -120.470     296.411
  C      104.691    -120.387     297.353
  N      104.040    -121.491     297.860
  N      106.344    -121.531     295.768
  C      107.270    -120.978     295.012
  N      107.291    -119.617     295.138
  O      113.169    -120.792     295.970
  O      111.480    -122.653     296.499
  H      107.620    -117.182     296.507
  H      113.785    -121.299     296.534
  H      104.636    -117.124     297.721
  H      107.956    -121.516     294.368
  H      107.624    -117.924     294.004
  H      109.455    -118.789     296.330
  H      111.239    -117.549     295.328
  H      110.546    -118.236     292.664
  H      111.753    -120.191     292.940
  H      103.343    -121.344     298.575
  H      104.345    -122.414     297.584
  H      112.333    -119.280     294.360
  P      111.192    -115.226     294.266
  C      112.702    -115.579     292.189
  O      111.670    -114.810     292.790
  O      112.440    -116.038     294.856
  O      110.813    -114.085     295.154
  H      112.810    -115.562     295.626
  H      112.915    -115.190     291.215
  H      112.385    -116.597     292.105
  H      113.583    -115.528     292.794

 6  7  8  9  10  11  12  13  14  15  25  28  32  33  34  35 0
 6-311+G(2d,p)
 ****
 36  39  40 0
 6-311+G(2d,p)
 ****
 1  2  3  4  5  16  17  18  19  20  21  22  23  24 0
 3-21G
 ****
 26  27  29  30  31  37  38  41  42  43  44  45  46  47 0
 3-21G
 ****
 48 0
 3-21G
 ****


