%nproc=1
%NoSave
%Mem=1900MB
#P OB98/GEN NMR

erre ene a

0 1
  C     -487.918      53.656    -177.680
  O     -487.332      53.036    -176.554
  H     -487.708      54.731    -177.639
  H     -489.002      53.508    -177.681
  H     -487.484      53.245    -178.600
  P     -487.556      51.452    -176.408
  C     -489.394      51.468    -174.594
  O     -489.095      51.309    -175.976
  C     -490.858      51.126    -174.311
  O     -491.139      49.814    -174.870
  C     -491.191      51.076    -172.809
  O     -492.504      51.612    -172.607
  C     -491.194      49.584    -172.495
  O     -492.013      49.271    -171.376
  C     -491.680      48.996    -173.826
  N     -493.043      44.110    -173.210
  C     -493.736      45.264    -173.097
  N     -493.296      46.527    -173.286
  C     -492.011      46.522    -173.691
  C     -491.177      45.427    -173.846
  C     -491.742      44.171    -173.586
  N     -491.036      42.998    -173.679
  N     -489.908      45.848    -174.236
  C     -489.991      47.158    -174.312
  N     -491.234      47.619    -173.981
  O     -486.581      50.741    -175.538
  O     -487.580      50.991    -177.936
  H     -492.890      49.686    -171.505
  H     -488.108      51.595    -178.488
  H     -494.777      45.159    -172.792
  H     -489.174      47.813    -174.598
  H     -492.777      48.993    -173.907
  H     -490.167      49.261    -172.278
  H     -490.468      51.619    -172.204
  H     -491.501      51.844    -174.839
  H     -489.194      52.502    -174.289
  H     -491.532      42.123    -173.481
  H     -490.067      43.009    -173.971
  H     -488.730      50.815    -174.028
  P     -492.641      53.147    -172.157
  C     -492.581      52.630    -169.616
  O     -491.959      53.311    -170.712
  O     -493.994      53.752    -172.307
  O     -491.578      53.886    -173.112
  H     -491.936      54.751    -173.387
  H     -492.031      52.821    -168.719
  H     -492.592      51.578    -169.810
  H     -493.585      52.982    -169.501

 6  7  8  9  10  11  12  13  14  15  25  28  32  33  34  35 0
 6-311+G(2d,p)
 ****
 36  39  40 0
 6-311+G(2d,p)
 ****
 1  2  3  4  5  16  17  18  19  20  21  22  23  24 0
 3-21G
 ****
 26  27  29  30  31  37  38  41  42  43  44  45  46  47 0
 3-21G
 ****
 48 0
 3-21G
 ****


