%nproc=1
%NoSave
%Mem=1900MB
#P OB98/GEN NMR

erre ene a

0 1
  C        7.907      44.870    -473.890
  O        6.820      45.747    -474.103
  H        7.912      44.096    -474.658
  H        8.837      45.446    -473.951
  H        7.845      44.414    -472.896
  P        5.348      45.145    -473.874
  C        3.704      43.787    -475.371
  O        4.880      44.588    -475.308
  C        3.466      43.291    -476.798
  O        3.184      44.451    -477.647
  C        4.668      42.552    -477.408
  O        4.184      41.462    -478.194
  C        5.313      43.593    -478.300
  O        6.066      43.005    -479.356
  C        4.107      44.396    -478.762
  N        3.429      47.927    -482.389
  C        2.862      46.720    -482.186
  N        3.089      45.834    -481.194
  C        3.975      46.346    -480.326
  C        4.647      47.550    -480.392
  C        4.353      48.366    -481.498
  N        4.957      49.583    -481.736
  N        5.513      47.697    -479.317
  C        5.375      46.590    -478.619
  N        4.461      45.742    -479.180
  O        4.463      46.469    -473.679
  O        5.206      44.196    -472.728
  H        6.280      43.694    -480.017
  H        4.567      46.795    -472.765
  H        2.128      46.416    -482.928
  H        5.917      46.358    -477.710
  H        3.579      43.923    -479.608
  H        5.993      44.225    -477.704
  H        5.353      42.175    -476.641
  H        2.568      42.667    -476.808
  H        2.840      44.379    -475.033
  H        4.716      50.077    -482.583
  H        5.682      49.901    -481.117
  H        3.832      42.923    -474.701
  P        4.781      39.999    -477.855
  C        6.672      38.476    -478.700
  O        6.013      39.711    -478.839
  O        3.627      39.004    -478.372
  O        5.053      39.805    -476.399
  H        3.404      38.361    -477.676
  H        7.468      38.414    -479.412
  H        5.978      37.680    -478.871
  H        7.072      38.394    -477.711

 6  7  8  9  10  11  12  13  14  15  25  28  32  33  34  35 0
 6-311+G(2d,p)
 ****
 36  39  40 0
 6-311+G(2d,p)
 ****
 1  2  3  4  5  16  17  18  19  20  21  22  23  24 0
 3-21G
 ****
 26  27  29  30  31  37  38  41  42  43  44  45  46  47 0
 3-21G
 ****
 48 0
 3-21G
 ****


