%nproc=1
%NoSave
%Mem=1900MB
#P OB98/GEN NMR

erre ene a

0 1
  C      202.794     -76.914    -588.300
  O      203.629     -78.054    -588.123
  P      204.045     -78.388    -586.605
  C      205.763     -77.488    -584.886
  O      205.308     -77.471    -586.229
  C      206.764     -76.358    -584.631
  O      208.016     -76.602    -585.346
  C      206.263     -74.969    -585.077
  O      206.789     -74.012    -584.150
  C      206.926     -74.812    -586.437
  O      206.920     -73.471    -586.918
  C      208.293     -75.419    -586.133
  N      212.279     -74.069    -589.021
  C      211.749     -73.530    -587.899
  N      210.678     -73.946    -587.199
  C      210.149     -75.049    -587.749
  C      210.569     -75.714    -588.893
  C      211.693     -75.182    -589.546
  N      212.229     -75.707    -590.699
  N      209.751     -76.799    -589.158
  C      208.804     -76.746    -588.228
  N      209.054     -75.755    -587.317
  O      204.651     -79.868    -586.698
  O      202.904     -78.303    -585.643
  H      207.282     -73.449    -587.828
  H      203.989     -80.532    -586.426
  H      212.241     -72.634    -587.532
  H      207.939     -77.377    -588.182
  H      208.916     -74.753    -585.525
  H      206.384     -75.420    -587.171
  H      205.165     -74.883    -585.102
  H      207.002     -76.337    -583.556
  H      206.242     -78.451    -584.658
  H      213.033     -75.255    -591.095
  H      211.824     -76.525    -591.118
  H      204.896     -77.403    -584.213
  P      205.888     -73.578    -582.895
  C      204.357     -71.564    -582.425
  O      205.322     -72.122    -583.299
  O      207.019     -73.185    -581.836
  O      204.904     -74.585    -582.401
  H      207.681     -72.595    -582.225
  H      204.124     -70.553    -582.758
  H      204.754     -71.512    -581.402
  H      203.443     -72.165    -582.456
  H      202.581     -76.786    -589.341
  H      203.295     -76.044    -587.929
  H      201.879     -77.055    -587.763

 3  4  5  6  7  8  9  10  11  12  22  25  29  30  31  32 0
 6-311+G(2d,p)
 ****
 33  36  37 0
 6-311+G(2d,p)
 ****
 1  2  13  14  15  16  17  18  19  20  21  23  24  26 0
 3-21G
 ****
 27  28  34  35  38  39  40  41  42  43  44  45  46  47  48 0
 3-21G
 ****


