%nproc=1
%NoSave
%Mem=1900MB
#P OB98/GEN NMR

erre ene a

0 1
  C     -158.306    -122.902    -159.098
  O     -158.069    -123.509    -160.351
  H     -158.949    -123.560    -158.508
  H     -158.819    -121.947    -159.244
  H     -157.374    -122.740    -158.553
  P     -156.886    -122.944    -161.269
  C     -158.097    -120.753    -161.904
  O     -156.987    -121.341    -161.242
  C     -157.978    -119.226    -161.932
  O     -159.005    -118.677    -162.794
  C     -158.213    -118.645    -160.537
  O     -157.515    -117.416    -160.340
  C     -159.708    -118.373    -160.530
  O     -160.097    -117.405    -159.560
  C     -159.933    -117.939    -161.979
  N     -163.798    -116.199    -164.805
  C     -162.604    -115.585    -164.487
  N     -162.426    -114.334    -164.967
  N     -161.677    -116.140    -163.751
  C     -162.024    -117.363    -163.277
  C     -163.185    -118.062    -163.504
  C     -164.187    -117.454    -164.353
  O     -165.273    -117.946    -164.655
  N     -163.184    -119.265    -162.839
  C     -162.027    -119.289    -162.208
  N     -161.281    -118.160    -162.454
  O     -157.360    -123.295    -162.760
  O     -155.523    -123.495    -160.984
  H     -160.934    -117.005    -159.863
  H     -156.592    -123.362    -163.354
  H     -164.471    -115.733    -165.389
  H     -161.683    -120.093    -161.570
  H     -159.713    -116.869    -162.098
  H     -160.227    -119.306    -160.280
  H     -163.175    -113.804    -165.384
  H     -157.928    -119.342    -159.747
  H     -161.704    -113.768    -164.511
  H     -157.013    -118.929    -162.359
  H     -158.997    -121.048    -161.350
  H     -158.190    -121.153    -162.917
  P     -156.169    -117.457    -159.473
  C     -157.165    -117.021    -157.086
  O     -156.556    -117.925    -157.988
  O     -155.778    -115.916    -159.312
  O     -155.074    -118.253    -160.102
  H     -155.021    -115.697    -159.890
  H     -157.345    -117.514    -156.154
  H     -158.093    -116.681    -157.495
  H     -156.517    -116.184    -156.927

 6  7  8  9  10  11  12  13  14  15  26  29  33  34 0
 6-311+G(2d,p)
 ****
 36  38  39  40  41 0
 6-311+G(2d,p)
 ****
 1  2  3  4  5  16  17  18  19  20  21  22  23  24  25 0
 3-21G
 ****
 27  28  30  31  32  35  37  42  43  44  45  46  47 0
 3-21G
 ****
 48  49 0
 3-21G
 ****


