%nproc=1
%NoSave
%Mem=1900MB
#P OB98/GEN NMR

erre ene a

0 1
  C       10.530    -189.366     292.358
  O       10.076    -189.983     293.544
  H       11.348    -189.962     291.942
  H       10.900    -188.358     292.572
  H        9.721    -189.317     291.626
  P        8.946    -189.198     294.373
  C        9.799    -187.838     296.434
  O        9.744    -187.956     295.017
  C       10.901    -188.731     296.990
  O       12.119    -188.585     296.223
  C       11.299    -188.425     298.435
  O       10.378    -188.930     299.387
  C       12.631    -189.148     298.495
  O       12.410    -190.565     298.585
  C       13.239    -188.755     297.131
  N       14.049    -187.538     297.188
  C       14.903    -187.298     296.098
  O       14.949    -188.081     295.151
  N       15.708    -186.183     296.121
  C       15.655    -185.369     297.131
  N       16.481    -184.289     297.098
  C       14.768    -185.579     298.292
  C       14.004    -186.667     298.253
  O        8.689    -190.144     295.636
  O        7.715    -188.826     293.615
  H       11.565    -190.748     298.137
  H        8.114    -189.681     296.293
  H       14.775    -184.878     299.120
  H       13.329    -186.886     299.074
  H       13.860    -189.571     296.731
  H       13.236    -188.867     299.357
  H       11.468    -187.353     298.583
  H       10.572    -189.775     296.880
  H       17.119    -184.203     296.324
  H        8.828    -188.136     296.839
  H       16.624    -183.685     297.902
  H       10.001    -186.799     296.711
  P       10.242    -188.128     300.770
  C       11.615    -189.047     302.784
  O       11.620    -188.321     301.561
  O        9.209    -189.020     301.610
  O        9.777    -186.706     300.634
  H        8.642    -188.454     302.173
  H       12.608    -189.084     303.181
  H       11.265    -190.042     302.606
  H       10.968    -188.561     303.485

 6  7  8  9  10  11  12  13  14  15  16  26  30  31  32  33  35 0
 6-311+G(2d,p)
 ****
 37  38 0
 6-311+G(2d,p)
 ****
 1  2  3  4  5  17  18  19  20  21  22  23  24  25 0
 3-21G
 ****
 27  28  29  34  36  39  40  41  42  43  44  45  46 0
 3-21G
 ****


