%nproc=1
%NoSave
%Mem=1900MB
#P OB98/GEN NMR

erre ene a

0 1
  C     -112.010     277.981    1312.891
  O     -111.373     279.164    1312.463
  P     -110.430     279.909    1313.544
  C     -109.970     281.684    1311.710
  O     -110.295     281.441    1313.080
  C     -110.355     283.120    1311.347
  O     -109.700     284.078    1312.249
  C     -109.920     283.568    1309.903
  O     -110.765     283.019    1308.929
  C     -110.010     285.090    1310.072
  O     -111.389     285.529    1309.960
  C     -109.500     285.311    1311.517
  N     -106.005     288.951    1310.617
  C     -107.356     288.932    1310.424
  N     -108.216     287.929    1310.679
  C     -107.565     286.843    1311.154
  C     -106.189     286.738    1311.393
  C     -105.400     287.847    1311.102
  N     -104.038     287.874    1311.291
  N     -105.861     285.507    1311.872
  C     -107.018     284.873    1311.957
  N     -108.085     285.655    1311.578
  O     -108.958     279.291    1313.274
  O     -110.837     279.715    1314.983
  H     -111.479     286.312    1310.519
  H     -108.456     279.210    1314.120
  H     -107.778     289.846    1310.026
  H     -107.157     283.857    1312.352
  H     -110.055     286.103    1312.053
  H     -109.402     285.609    1309.315
  H     -108.865     283.285    1309.748
  H     -111.445     283.250    1311.450
  H     -110.541     281.009    1311.048
  H     -103.530     288.688    1310.910
  H     -103.548     287.016    1311.512
  H     -108.900     281.538    1311.550
  P     -110.068     282.396    1307.602
  C     -111.788     280.560    1308.115
  O     -111.102     281.292    1307.116
  O     -108.884     281.537    1308.252
  O     -109.638     283.437    1306.596
  H     -109.176     280.974    1308.979
  H     -112.471     279.893    1307.660
  H     -112.333     281.230    1308.799
  H     -111.043     279.975    1308.709
  H     -112.601     277.585    1312.092
  H     -112.641     278.198    1313.728
  H     -111.271     277.262    1313.178

 3  4  5  6  7  8  9  10  11  12  22  25  29  30  31  32 0
 6-311+G(2d,p)
 ****
 33  36  37 0
 6-311+G(2d,p)
 ****
 1  2  13  14  15  16  17  18  19  20  21  23  24  26 0
 3-21G
 ****
 27  28  34  35  38  39  40  41  42  43  44  45  46  47  48 0
 3-21G
 ****


