%nproc=1
%NoSave
%Mem=1900MB
#P OB98/GEN NMR

erre ene a

0 1
  C      191.932    -149.771     381.316
  O      192.853    -150.279     382.262
  P      193.282    -149.298     383.474
  C      195.728    -148.752     382.771
  O      194.387    -148.281     382.890
  C      196.694    -147.587     382.553
  O      198.040    -148.118     382.423
  C      196.412    -146.737     381.295
  O      196.759    -145.385     381.628
  C      197.383    -147.324     380.291
  O      197.628    -146.504     379.161
  C      198.586    -147.580     381.199
  N      202.986    -148.002     378.595
  C      202.330    -146.922     379.095
  N      201.170    -146.891     379.781
  C      200.683    -148.140     379.952
  C      201.229    -149.317     379.494
  C      202.439    -149.216     378.779
  N      203.105    -150.323     378.266
  N      200.436    -150.400     379.840
  C      199.425    -149.870     380.499
  N      199.550    -148.505     380.610
  O      194.131    -150.263     384.426
  O      192.136    -148.648     384.195
  H      198.209    -145.757     379.409
  H      193.955    -150.064     385.372
  H      202.798    -145.953     378.919
  H      198.588    -150.425     380.894
  H      199.124    -146.661     381.438
  H      196.983    -148.271     379.920
  H      195.368    -146.768     380.979
  H      196.677    -146.951     383.446
  H      195.787    -149.414     381.896
  H      203.843    -150.128     377.606
  H      202.587    -151.189     378.232
  H      195.993    -149.328     383.656
  P      196.205    -144.191     380.711
  C      198.515    -144.083     379.578
  O      197.132    -144.252     379.394
  O      196.807    -142.911     381.465
  O      194.730    -144.150     380.507
  H      197.767    -143.010     381.632
  H      199.034    -144.246     378.639
  H      198.896    -144.808     380.319
  H      198.732    -143.063     379.936
  H      191.736    -150.516     380.574
  H      192.344    -148.901     380.848
  H      191.019    -149.511     381.811

 3  4  5  6  7  8  9  10  11  12  22  25  29  30  31  32 0
 6-311+G(2d,p)
 ****
 33  36  37 0
 6-311+G(2d,p)
 ****
 1  2  13  14  15  16  17  18  19  20  21  23  24  26 0
 3-21G
 ****
 27  28  34  35  38  39  40  41  42  43  44  45  46  47  48 0
 3-21G
 ****


