%nproc=1
%NoSave
%Mem=1900MB
#P OB98/GEN NMR

erre ene a

0 1
  C      132.405      75.552     -43.322
  O      131.674      76.656     -42.782
  P      132.330      77.406     -41.519
  C      133.676      79.457     -42.386
  O      132.439      78.963     -41.891
  C      134.351      80.358     -41.354
  O      135.692      80.691     -41.754
  C      133.655      81.695     -41.143
  O      132.526      81.572     -40.292
  C      134.758      82.496     -40.463
  O      134.784      82.196     -39.056
  C      136.026      81.965     -41.150
  N      138.426      86.323     -42.114
  C      138.085      85.748     -40.905
  N      138.461      86.419     -39.794
  N      137.435      84.621     -40.794
  C      137.150      84.046     -41.987
  C      137.434      84.515     -43.249
  C      138.126      85.782     -43.358
  O      138.424      86.350     -44.403
  N      136.994      83.650     -44.217
  C      136.472      82.645     -43.544
  N      136.529      82.846     -42.186
  O      133.851      76.910     -41.558
  O      131.671      77.092     -40.218
  H      133.864      82.260     -38.733
  H      134.235      76.937     -40.662
  H      138.921      87.197     -42.141
  H      136.046      81.754     -43.987
  H      136.832      81.782     -40.432
  H      134.613      83.577     -40.554
  H      139.026      87.255     -39.806
  H      133.397      82.159     -42.103
  H      138.251      85.995     -38.899
  H      134.398      79.808     -40.403
  H      133.509      80.022     -43.305
  H      134.319      78.609     -42.646
  P      131.129      82.141     -40.841
  C      129.870      80.208     -42.027
  O      130.122      80.897     -40.819
  O      131.421      82.377     -42.396
  O      130.658      83.382     -40.163
  H      130.861      83.099     -42.739
  H      130.793      80.048     -42.591
  H      129.162      80.777     -42.635
  H      129.431      79.234     -41.792
  H      131.869      75.141     -44.152
  H      132.526      74.802     -42.569
  H      133.367      75.887     -43.650

 3  4  5  6  7  8  9  10  11  12  23  26  30  31  33  0
 6-311+G(2d,p)
 ****
 35  36  37  38 0
 6-311+G(2d,p)
 ****
 1  2  13  14  15  16  17  18  19  20  21  22  24  25  27  28  29 0
 3-21G
 ****
 32  34  39  40  41  42  43  44  45  46  47  48  49 0
 3-21G
 ****


