%nproc=1
%NoSave
%Mem=1900MB
#P OB98/GEN NMR

erre ene a

0 1
  C     -205.196     -70.982      13.027
  O     -205.207     -72.241      13.674
  P     -205.378     -72.322      15.265
  C     -203.527     -73.958      16.082
  O     -204.878     -73.776      15.715
  C     -203.369     -75.139      17.050
  O     -203.948     -74.751      18.322
  C     -204.095     -76.413      16.631
  O     -203.544     -77.512      17.358
  C     -205.504     -76.140      17.114
  O     -206.268     -77.334      17.252
  C     -205.259     -75.350      18.425
  N     -206.284     -74.310      18.629
  C     -207.570     -74.741      18.941
  O     -207.852     -75.926      19.127
  N     -208.540     -73.779      18.956
  C     -208.348     -72.464      18.643
  O     -209.256     -71.691      18.359
  C     -206.946     -72.027      18.557
  C     -205.992     -72.962      18.527
  O     -206.967     -72.393      15.444
  O     -204.783     -71.185      16.021
  H     -206.377     -77.709      16.345
  H     -207.324     -71.504      15.633
  H     -209.491     -74.113      19.040
  H     -206.743     -70.971      18.457
  H     -204.950     -72.673      18.411
  H     -205.277     -76.014      19.299
  H     -206.015     -75.502      16.381
  H     -204.064     -76.615      15.557
  H     -202.303     -75.338      17.211
  H     -203.150     -73.035      16.534
  H     -202.915     -74.144      15.194
  P     -202.673     -78.592      16.546
  C     -204.412     -80.400      17.089
  O     -203.050     -80.021      17.154
  O     -201.214     -78.301      16.436
  O     -203.385     -78.616      15.109
  H     -202.781     -79.003      14.450
  H     -204.475     -81.488      17.026
  H     -204.908     -79.965      16.215
  H     -204.922     -80.065      17.998
  H     -205.073     -71.123      11.973
  H     -204.386     -70.394      13.405
  H     -206.121     -70.477      13.214

 3  4  5  6  7  8  9  10  11  12  13  23  28  29  30  31  32 0
 6-311+G(2d,p)
 ****
 33  34 0
 6-311+G(2d,p)
 ****
 1  2  14  15  16  17  18  19  20  21  22  24  25  26  27 0
 3-21G
 ****
 35  36  37  38  39  40  41  42  43  44  45 0
 3-21G
 ****


