%nproc=1
%NoSave
%Mem=1900MB
#P OB98/GEN NMR

erre ene a

0 1
  C      471.963     138.054     444.241
  O      472.393     139.244     443.609
  H      472.238     138.098     445.297
  H      472.443     137.186     443.784
  H      470.875     137.964     444.162
  P      472.180     139.328     442.018
  C      474.758     139.164     441.681
  O      473.484     138.597     441.424
  C      475.569     139.235     440.384
  O      475.799     137.910     439.854
  C      474.888     140.005     439.252
  O      474.965     141.409     439.406
  C      475.703     139.512     438.075
  O      476.998     140.150     438.084
  C      475.822     138.006     438.408
  N      474.741     137.209     437.819
  C      474.843     136.932     436.452
  O      475.787     137.353     435.789
  N      473.839     136.210     435.848
  C      472.835     135.783     436.550
  N      471.872     135.076     435.901
  C      472.699     136.035     437.996
  C      473.673     136.744     438.558
  O      472.459     140.868     441.689
  O      470.880     138.809     441.504
  H      477.405     139.946     438.948
  H      472.499     141.003     440.708
  H      471.840     135.671     438.538
  H      473.644     136.971     439.617
  H      476.780     137.602     438.064
  H      475.249     139.733     437.112
  H      473.848     139.686     439.121
  H      476.550     139.666     440.625
  H      471.964     134.969     434.895
  H      475.279     138.532     442.412
  H      470.986     134.831     436.324
  H      474.651     140.175     442.091
  P      473.763     142.284     438.799
  C      475.417     143.694     437.363
  O      474.265     142.856     437.392
  O      473.746     143.582     439.739
  O      472.437     141.593     438.772
  H      472.834     143.910     439.861
  H      475.618     143.989     436.354
  H      476.258     143.158     437.752
  H      475.240     144.564     437.961

 6  7  8  9  10  11  12  13  14  15  16  26  30  31  32  33  35 0
 6-311+G(2d,p)
 ****
 37  38 0
 6-311+G(2d,p)
 ****
 1  2  3  4  5  17  18  19  20  21  22  23  24  25 0
 3-21G
 ****
 27  28  29  34  36  39  40  41  42  43  44  45  46 0
 3-21G
 ****


