%nproc=1
%NoSave
%Mem=1900MB
#P OB98/GEN NMR

erre ene a

0 1
  C      401.435     569.250     436.276
  O      400.076     568.921     436.483
  H      401.480     570.193     435.721
  H      401.922     568.472     435.679
  H      401.952     569.376     437.225
  P      399.720     567.628     437.365
  C      399.429     567.711     439.919
  O      398.934     568.151     438.659
  C      398.551     568.233     441.052
  O      398.604     569.680     441.065
  C      397.081     567.816     440.935
  O      396.581     567.550     442.244
  C      396.412     569.060     440.379
  O      395.028     569.131     440.731
  C      397.254     570.178     440.992
  N      394.626     574.417     440.191
  C      394.461     573.432     441.144
  N      393.421     573.575     441.996
  N      395.237     572.383     441.249
  C      396.243     572.375     440.337
  C      396.513     573.288     439.346
  C      395.635     574.437     439.230
  O      395.726     575.334     438.405
  N      397.612     572.911     438.610
  C      397.999     571.768     439.149
  N      397.193     571.397     440.195
  O      400.873     566.720     437.664
  O      398.588     566.879     436.519
  H      394.981     569.196     441.711
  H      398.964     566.133     436.017
  H      393.992     575.195     440.146
  H      398.840     571.178     438.823
  H      396.925     570.438     442.001
  H      396.487     569.065     439.281
  H      392.785     574.358     441.988
  H      396.933     566.943     440.291
  H      393.289     572.878     442.716
  H      398.977     567.890     442.007
  H      400.449     568.089     440.035
  H      399.453     566.616     439.933
  P      396.978     566.164     442.954
  C      399.170     565.404     444.079
  O      398.212     566.452     443.946
  O      397.142     564.997     442.044
  O      395.759     565.930     443.979
  H      395.643     564.966     444.106
  H      399.938     565.707     444.759
  H      399.602     565.193     443.123
  H      398.688     564.526     444.455

 6  7  8  9  10  11  12  13  14  15  26  29  33  34 0
 6-311+G(2d,p)
 ****
 36  38  39  40  41 0
 6-311+G(2d,p)
 ****
 1  2  3  4  5  16  17  18  19  20  21  22  23  24  25 0
 3-21G
 ****
 27  28  30  31  32  35  37  42  43  44  45  46  47 0
 3-21G
 ****
 48  49 0
 3-21G
 ****


