%nproc=1
%NoSave
%Mem=1900MB
#P OB98/GEN NMR

erre ene a

0 1
  C     -565.845     478.578    -522.022
  O     -566.388     478.360    -523.308
  H     -566.064     477.705    -521.396
  H     -566.300     479.463    -521.560
  H     -564.762     478.701    -522.079
  P     -566.262     479.522    -524.404
  C     -565.493     478.375    -526.586
  O     -566.594     478.857    -525.826
  C     -565.955     477.291    -527.570
  O     -566.381     476.144    -526.793
  C     -567.137     477.750    -528.433
  O     -566.914     477.578    -529.834
  C     -568.328     477.023    -527.816
  O     -569.400     476.789    -528.701
  C     -567.692     475.755    -527.231
  N     -568.450     475.165    -526.133
  C     -569.495     474.304    -526.462
  O     -569.808     473.979    -527.611
  N     -570.193     473.783    -525.405
  C     -569.969     474.041    -524.085
  O     -570.616     473.537    -523.177
  C     -568.874     474.981    -523.798
  C     -568.176     475.488    -524.817
  O     -564.997     480.317    -524.364
  O     -567.543     480.450    -524.133
  H     -570.114     476.351    -528.203
  H     -567.269     481.251    -523.651
  H     -570.940     473.144    -525.634
  H     -568.666     475.214    -522.762
  H     -567.353     476.183    -524.644
  H     -567.577     474.994    -528.001
  H     -568.717     477.641    -526.993
  H     -567.294     478.831    -528.335
  H     -565.099     476.983    -528.181
  H     -564.752     477.969    -525.889
  H     -565.038     479.205    -527.140
  P     -566.325     478.697    -530.806
  C     -565.591     476.734    -532.381
  O     -566.124     478.049    -532.256
  O     -565.191     479.501    -530.258
  O     -567.580     479.697    -531.015
  H     -567.207     480.595    -531.119
  H     -565.529     476.471    -533.416
  H     -566.229     476.041    -531.874
  H     -564.614     476.702    -531.946

 6  7  8  9  10  11  12  13  14  15  16  26  31  32  33  34  35 0
 6-311+G(2d,p)
 ****
 36  37 0
 6-311+G(2d,p)
 ****
 1  2  3  4  5  17  18  19  20  21  22  23  24  25 0
 3-21G
 ****
 27  28  29  30  38  39  40  41  42  43  44  45 0
 3-21G
 ****


