%nproc=1
%NoSave
%Mem=1900MB
#P OB98/GEN NMR

erre ene a

0 1
  C     -164.086      39.991      22.864
  O     -164.452      40.421      24.180
  P     -163.376      41.028      25.204
  C     -163.030      43.528      24.734
  O     -163.713      42.567      25.532
  C     -163.726      44.896      24.713
  O     -165.136      44.760      24.385
  C     -163.651      45.681      26.030
  O     -163.638      47.062      25.665
  C     -164.973      45.316      26.690
  O     -165.362      46.218      27.715
  C     -165.897      45.311      25.476
  N     -170.822      44.770      24.167
  C     -169.823      45.504      23.628
  N     -168.531      45.567      24.008
  C     -168.292      44.734      25.035
  C     -169.205      43.914      25.682
  C     -170.530      43.962      25.216
  N     -171.561      43.250      25.790
  N     -168.598      43.224      26.716
  C     -167.342      43.627      26.695
  N     -167.106      44.540      25.694
  O     -161.953      40.788      24.809
  O     -163.685      40.279      26.588
  H     -166.232      45.938      28.057
  H     -162.847      39.980      26.986
  H     -170.102      46.128      22.783
  H     -166.573      43.316      27.387
  H     -166.195      46.331      25.197
  H     -164.885      44.317      27.140
  H     -162.785      45.429      26.640
  H     -163.273      45.481      23.898
  H     -162.958      43.141      23.708
  H     -172.490      43.418      25.446
  H     -171.389      42.741      26.648
  H     -162.010      43.642      25.118
  P     -162.786      48.144      26.488
  C     -160.365      47.620      25.844
  O     -161.480      48.461      25.614
  O     -162.514      47.776      27.911
  O     -163.639      49.494      26.383
  H     -163.364      50.110      27.091
  H     -159.876      47.900      26.783
  H     -159.655      47.735      25.022
  H     -160.672      46.568      25.894
  H     -164.952      39.623      22.355
  H     -163.356      39.212      22.934
  H     -163.677      40.816      22.320

 3  4  5  6  7  8  9  10  11  12  22  25  29  30  31  32 0
 6-311+G(2d,p)
 ****
 33  36  37 0
 6-311+G(2d,p)
 ****
 1  2  13  14  15  16  17  18  19  20  21  23  24  26 0
 3-21G
 ****
 27  28  34  35  38  39  40  41  42  43  44  45  46  47  48 0
 3-21G
 ****


