%nproc=1
%NoSave
%Mem=1900MB
#P OB98/GEN NMR

erre ene a

0 1
  C     -209.398    -229.972     318.282
  O     -210.204    -229.332     317.306
  P     -209.473    -228.747     315.999
  C     -210.358    -228.055     313.618
  O     -210.588    -228.728     314.848
  C     -211.645    -228.013     312.786
  O     -212.027    -229.348     312.402
  C     -212.851    -227.446     313.527
  O     -212.808    -226.030     313.612
  C     -214.000    -227.995     312.682
  O     -214.183    -227.191     311.505
  C     -213.465    -229.388     312.299
  N     -214.021    -230.469     313.110
  C     -215.344    -230.816     312.855
  O     -216.031    -230.257     311.996
  N     -215.864    -231.812     313.639
  C     -215.231    -232.440     314.670
  O     -215.757    -233.298     315.366
  C     -213.843    -232.012     314.913
  C     -213.312    -231.061     314.139
  O     -208.518    -229.973     315.624
  O     -208.776    -227.451     316.249
  H     -208.881    -230.822     315.931
  H     -214.882    -227.630     310.979
  H     -216.821    -232.094     313.455
  H     -213.309    -232.477     315.732
  H     -212.295    -230.724     314.311
  H     -213.688    -229.603     311.239
  H     -214.951    -228.011     313.219
  H     -212.906    -227.873     314.538
  H     -211.446    -227.437     311.877
  H     -209.580    -228.588     313.061
  H     -210.006    -227.040     313.825
  P     -213.446    -225.366     314.931
  C     -213.323    -222.966     315.959
  O     -212.778    -223.917     315.071
  O     -212.756    -226.235     316.085
  O     -214.941    -225.393     314.947
  H     -211.814    -226.401     315.915
  H     -212.558    -222.215     316.183
  H     -213.643    -223.430     316.896
  H     -214.175    -222.472     315.488
  H     -210.015    -230.308     319.089
  H     -208.671    -229.280     318.653
  H     -208.901    -230.810     317.840

 3  4  5  6  7  8  9  10  11  12  13  24  28  29  30  31  32 0
 6-311+G(2d,p)
 ****
 33  34 0
 6-311+G(2d,p)
 ****
 1  2  14  15  16  17  18  19  20  21  22  23  25  26  27 0
 3-21G
 ****
 35  36  37  38  39  40  41  42  43  44  45 0
 3-21G
 ****


