%nproc=1
%NoSave
%Mem=1900MB
#P OB98/GEN NMR

erre ene a

0 1
  C      173.725      52.163    -702.662
  O      172.997      51.013    -703.039
  H      173.741      52.264    -701.574
  H      174.751      52.068    -703.026
  H      173.273      53.055    -703.110
  P      171.486      50.916    -702.500
  C      171.150      48.877    -704.069
  O      171.009      49.401    -702.755
  C      170.875      47.372    -704.064
  O      169.683      47.091    -703.284
  C      170.605      46.770    -705.436
  O      171.814      46.545    -706.166
  C      169.937      45.455    -705.039
  O      170.942      44.496    -704.666
  C      169.115      45.861    -703.816
  N      164.768      43.822    -705.641
  C      166.011      43.310    -705.501
  N      167.120      43.912    -705.008
  C      166.852      45.175    -704.639
  C      165.629      45.828    -704.732
  C      164.557      45.102    -705.264
  N      163.290      45.637    -705.420
  N      165.730      47.117    -704.237
  C      166.991      47.245    -703.857
  N      167.714      46.084    -704.093
  O      170.648      51.752    -703.586
  O      171.268      51.435    -701.125
  H      171.656      44.572    -705.329
  H      169.924      52.222    -703.134
  H      166.135      42.269    -705.800
  H      167.420      48.133    -703.417
  H      169.192      45.111    -703.016
  H      169.349      45.021    -705.856
  H      169.905      47.386    -706.011
  H      171.724      46.872    -703.577
  H      172.178      49.043    -704.417
  H      162.526      45.017    -705.615
  H      163.146      46.606    -705.130
  H      170.456      49.394    -704.731
  P      171.805      46.886    -707.724
  C      174.188      47.847    -707.377
  O      173.348      47.001    -708.165
  O      171.282      48.409    -707.777
  O      170.952      45.987    -708.573
  H      170.866      48.584    -708.640
  H      175.181      47.834    -707.775
  H      174.204      47.493    -706.367
  H      173.808      48.847    -707.399

 6  7  8  9  10  11  12  13  14  15  25  28  32  33  34  35 0
 6-311+G(2d,p)
 ****
 36  39  40 0
 6-311+G(2d,p)
 ****
 1  2  3  4  5  16  17  18  19  20  21  22  23  24 0
 3-21G
 ****
 26  27  29  30  31  37  38  41  42  43  44  45  46  47  48 0
 3-21G
 ****


