%nproc=1
%NoSave
%Mem=1900MB
#P OB98/GEN NMR

erre ene a

0 1
  C      -92.097     315.021    -168.481
  O      -91.038     315.905    -168.079
  P      -90.808     317.270    -168.894
  C      -89.393     316.039    -170.719
  O      -90.476     316.906    -170.423
  C      -89.257     315.864    -172.236
  O      -90.514     315.447    -172.814
  C      -88.880     317.139    -172.981
  O      -87.505     317.449    -172.840
  C      -89.277     316.779    -174.408
  O      -88.247     316.011    -175.052
  C      -90.536     315.917    -174.180
  N      -91.772     316.631    -174.478
  C      -92.037     316.871    -175.822
  O      -91.265     316.563    -176.727
  N      -93.216     317.514    -176.094
  C      -94.101     317.991    -175.167
  O      -95.131     318.578    -175.472
  C      -93.726     317.781    -173.762
  C      -92.594     317.127    -173.489
  O      -89.375     317.745    -168.352
  O      -91.832     318.336    -168.682
  H      -88.557     315.838    -175.964
  H      -89.311     318.716    -168.407
  H      -93.442     317.670    -177.062
  H      -94.387     318.164    -172.996
  H      -92.305     316.964    -172.453
  H      -90.494     315.016    -174.805
  H      -89.456     317.664    -175.027
  H      -89.504     317.971    -172.634
  H      -88.516     315.076    -172.425
  H      -89.577     315.063    -170.263
  H      -88.475     316.459    -170.296
  P      -87.121     318.536    -171.721
  C      -85.499     319.835    -173.307
  O      -86.681     319.843    -172.536
  O      -85.757     317.917    -171.151
  O      -88.191     318.724    -170.699
  H      -85.247     317.460    -171.843
  H      -85.303     318.848    -173.735
  H      -84.654     320.130    -172.673
  H      -85.603     320.560    -174.118
  H      -92.111     314.166    -167.838
  H      -91.934     314.705    -169.490
  H      -93.034     315.533    -168.414

 3  4  5  6  7  8  9  10  11  12  13  23  28  29  30  31  32 0
 6-311+G(2d,p)
 ****
 33  34 0
 6-311+G(2d,p)
 ****
 1  2  14  15  16  17  18  19  20  21  22  24  25  26 0
 3-21G
 ****
 27  35  36  37  38  39  40  41  42  43  44  45 0
 3-21G
 ****


