%nproc=1
%NoSave
%Mem=1900MB
#P OB98/GEN NMR

erre ene a

0 1
  C      -55.505      13.391      51.510
  O      -54.959      13.085      52.774
  H      -56.595      13.387      51.586
  H      -55.205      12.636      50.780
  H      -55.178      14.381      51.178
  P      -53.367      13.189      52.937
  C      -51.348      11.653      52.381
  O      -52.761      11.789      52.433
  C      -50.953      10.605      51.340
  O      -51.332       9.293      51.830
  C      -51.621      10.809      49.978
  O      -50.678      10.483      48.953
  C      -52.746       9.790      49.973
  O      -53.132       9.403      48.654
  C      -52.147       8.663      50.824
  N      -53.188       7.827      51.414
  C      -54.013       7.131      50.526
  O      -53.851       7.245      49.310
  N      -55.037       6.370      51.030
  C      -55.272       6.373      52.304
  N      -56.320       5.622      52.740
  C      -54.470       7.146      53.273
  C      -53.450       7.837      52.765
  O      -53.151      13.133      54.520
  O      -52.738      14.393      52.319
  H      -53.398      10.210      48.162
  H      -52.371      13.654      54.790
  H      -54.721       7.137      54.323
  H      -52.810       8.440      53.397
  H      -51.489       8.028      50.215
  H      -53.626      10.214      50.470
  H      -51.986      11.828      49.825
  H      -49.860      10.607      51.244
  H      -56.857       5.120      52.043
  H      -50.985      11.333      53.363
  H      -56.621       5.586      53.702
  H      -50.899      12.621      52.137
  P      -49.767      11.682      48.404
  C      -50.058      13.660      46.746
  O      -50.574      12.431      47.239
  O      -48.590      10.926      47.627
  O      -49.235      12.571      49.479
  H      -47.757      11.000      48.128
  H      -50.702      14.035      45.978
  H      -49.079      13.500      46.344
  H      -50.004      14.370      47.544

 6  7  8  9  10  11  12  13  14  15  16  26  30  31  32  33  35 0
 6-311+G(2d,p)
 ****
 37  38 0
 6-311+G(2d,p)
 ****
 1  2  3  4  5  17  18  19  20  21  22  23  24  25 0
 3-21G
 ****
 27  28  29  34  36  39  40  41  42  43  44  45  46 0
 3-21G
 ****


