%nproc=1
%NoSave
%Mem=1900MB
#P OB98/GEN NMR

erre ene a

0 1
  C     -312.379     167.759    -296.732
  O     -312.764     168.868    -295.939
  P     -312.198     170.314    -296.352
  C     -314.665     170.776    -297.044
  O     -313.287     170.957    -297.342
  C     -315.330     172.127    -296.792
  O     -314.929     172.666    -295.516
  C     -314.970     173.199    -297.811
  O     -315.728     173.088    -299.005
  C     -315.352     174.462    -297.055
  O     -316.774     174.671    -297.138
  C     -314.946     174.112    -295.618
  N     -312.233     178.337    -294.995
  C     -313.593     178.180    -295.181
  N     -314.322     179.312    -295.272
  N     -314.185     177.018    -295.266
  C     -313.327     175.970    -295.164
  C     -311.963     176.002    -294.979
  C     -311.320     177.295    -294.899
  O     -310.117     177.499    -294.787
  N     -311.440     174.737    -294.918
  C     -312.480     173.942    -295.067
  N     -313.643     174.642    -295.265
  O     -310.977     169.968    -297.327
  O     -311.779     171.171    -295.208
  H     -317.193     173.920    -296.671
  H     -310.396     170.746    -297.425
  H     -311.823     179.255    -294.940
  H     -312.438     172.860    -295.054
  H     -315.670     174.480    -294.886
  H     -314.875     175.360    -297.457
  H     -313.917     180.237    -295.275
  H     -313.890     173.207    -298.012
  H     -315.312     179.228    -295.469
  H     -316.416     171.971    -296.765
  H     -314.759     170.151    -296.153
  H     -315.151     170.263    -297.878
  P     -315.054     173.667    -300.343
  C     -314.873     171.176    -301.066
  O     -314.244     172.437    -300.979
  O     -313.913     174.637    -299.784
  O     -316.004     174.373    -301.253
  H     -313.716     175.339    -300.432
  H     -314.298     170.544    -301.749
  H     -315.892     171.271    -301.452
  H     -314.892     170.703    -300.080
  H     -312.827     166.869    -296.342
  H     -311.314     167.660    -296.713
  H     -312.705     167.911    -297.740

 3  4  5  6  7  8  9  10  11  12  23  26  30  31 0
 6-311+G(2d,p)
 ****
 33  35  36  37  38 0
 6-311+G(2d,p)
 ****
 1  2  13  14  15  16  17  18  19  20  21  22  24  25 0
 3-21G
 ****
 27  28  29  32  34  39  40  41  42  43  44  45  46  47  48  49 0
 3-21G
 ****


