%nproc=1
%NoSave
%Mem=1900MB
#P OB98/GEN NMR

erre ene a

0 1
  C      592.651     221.673    -641.014
  O      591.243     221.511    -640.888
  P      590.330     222.015    -642.110
  C      588.167     221.893    -640.658
  O      589.048     222.706    -641.438
  C      587.498     222.734    -639.567
  O      588.488     223.178    -638.619
  C      586.824     223.994    -640.083
  O      585.585     223.678    -640.687
  C      586.702     224.812    -638.805
  O      585.509     224.480    -638.087
  C      587.963     224.382    -638.009
  N      588.968     225.423    -637.950
  C      588.637     226.557    -637.187
  O      587.534     226.622    -636.628
  N      589.542     227.594    -637.108
  C      590.670     227.500    -637.743
  N      591.531     228.550    -637.622
  C      591.061     226.339    -638.572
  C      590.167     225.353    -638.638
  O      589.750     220.654    -642.717
  O      591.052     222.833    -643.134
  H      585.606     223.540    -637.827
  H      589.533     220.764    -643.660
  H      592.013     226.321    -639.077
  H      590.358     224.465    -639.229
  H      587.692     224.114    -636.976
  H      586.662     225.884    -639.011
  H      587.471     224.518    -640.799
  H      586.779     222.090    -639.045
  H      591.231     229.340    -637.058
  H      588.742     221.089    -640.192
  H      592.441     228.573    -638.061
  H      587.423     221.444    -641.322
  P      585.533     223.623    -642.286
  C      583.426     225.072    -642.047
  O      584.659     224.894    -642.710
  O      584.506     222.417    -642.546
  O      586.825     223.435    -643.010
  H      584.470     222.211    -643.503
  H      583.005     226.045    -642.308
  H      583.572     225.027    -640.961
  H      582.716     224.289    -642.357
  H      593.133     221.298    -640.136
  H      592.881     222.711    -641.132
  H      592.997     221.132    -641.870

 3  4  5  6  7  8  9  10  11  12  13  21  23  27  28  29  30  32 0
 6-311+G(2d,p)
 ****
 34  35 0
 6-311+G(2d,p)
 ****
 1  2  14  15  16  17  18  19  20  22  24  25  26 0
 3-21G
 ****
 31  33  36  37  38  39  40  41  42  43  44  45  46 0
 3-21G
 ****


