%nproc=1
%NoSave
%Mem=1900MB
#P OB98/GEN NMR

erre ene a

0 1
  C     -339.869    -419.144     808.758
  O     -339.643    -417.775     809.015
  H     -339.732    -419.322     807.690
  H     -340.889    -419.419     809.031
  H     -339.151    -419.758     809.310
  P     -339.841    -417.225     810.508
  C     -341.319    -415.229     809.800
  O     -340.093    -415.644     810.393
  C     -341.050    -414.278     808.631
  O     -340.187    -413.215     809.117
  C     -340.345    -414.979     807.456
  O     -341.011    -414.785     806.214
  C     -338.905    -414.489     807.578
  O     -338.185    -414.493     806.366
  C     -339.054    -413.110     808.230
  N     -337.867    -412.675     808.962
  C     -337.036    -411.753     808.339
  O     -337.222    -411.263     807.230
  N     -335.928    -411.372     809.056
  C     -335.572    -411.829     810.292
  O     -334.569    -411.453     810.888
  C     -336.481    -412.823     810.892
  C     -337.566    -413.196     810.207
  O     -338.784    -417.622     811.485
  O     -341.279    -417.788     810.944
  H     -338.583    -413.801     805.791
  H     -341.161    -418.532     811.565
  H     -335.321    -410.696     808.625
  H     -336.222    -413.218     811.868
  H     -338.254    -413.930     810.615
  H     -339.277    -412.356     807.478
  H     -338.370    -415.155     808.268
  H     -340.365    -416.065     807.589
  H     -341.997    -413.820     808.322
  H     -341.911    -414.724     810.575
  H     -341.872    -416.108     809.450
  P     -341.935    -415.866     805.488
  C     -340.205    -416.689     803.683
  O     -341.429    -416.036     803.982
  O     -343.401    -415.722     805.698
  O     -341.487    -417.264     806.166
  H     -342.284    -417.834     806.177
  H     -340.054    -416.696     802.624
  H     -340.240    -417.695     804.045
  H     -339.398    -416.168     804.155

 6  7  8  9  10  11  12  13  14  15  16  26  31  32  33  34  35 0
 6-311+G(2d,p)
 ****
 36  37 0
 6-311+G(2d,p)
 ****
 1  2  3  4  5  17  18  19  20  21  22  23  24  25 0
 3-21G
 ****
 27  28  29  30  38  39  40  41  42  43  44  45 0
 3-21G
 ****


