%nproc=1
%NoSave
%Mem=1900MB
#P OB98/GEN NMR

erre ene a

0 1
  C     -360.283     245.335    -310.865
  O     -359.796     244.077    -310.450
  H     -359.436     246.007    -311.029
  H     -360.924     245.764    -310.091
  H     -360.847     245.244    -311.798
  P     -360.866     242.886    -310.352
  C     -358.679     241.497    -310.211
  O     -360.057     241.584    -309.878
  C     -358.060     240.244    -309.578
  O     -358.858     239.082    -309.897
  C     -356.647     239.937    -310.063
  O     -355.665     240.697    -309.371
  C     -356.549     238.457    -309.711
  O     -356.319     238.316    -308.294
  C     -357.958     237.955    -310.069
  N     -356.765     234.191    -313.247
  C     -356.449     234.359    -311.913
  N     -355.696     233.392    -311.337
  N     -356.820     235.389    -311.198
  C     -357.560     236.285    -311.905
  C     -357.938     236.221    -313.230
  C     -357.520     235.079    -314.004
  O     -357.792     234.869    -315.176
  N     -358.687     237.309    -313.582
  C     -358.748     238.043    -312.480
  N     -358.071     237.461    -311.436
  O     -361.204     242.565    -311.888
  O     -362.106     243.192    -309.579
  H     -355.445     238.716    -308.106
  H     -362.149     242.324    -311.956
  H     -356.429     233.387    -313.755
  H     -359.268     238.987    -312.391
  H     -358.294     237.152    -309.414
  H     -355.728     237.957    -310.223
  H     -355.324     232.602    -311.847
  H     -356.559     240.050    -311.154
  H     -355.479     233.476    -310.353
  H     -358.080     240.377    -308.495
  H     -358.156     242.383    -309.832
  H     -358.577     241.457    -311.307
  P     -354.210     240.819    -310.031
  C     -353.809     242.893    -308.532
  O     -353.324     241.641    -308.977
  O     -354.438     241.863    -311.220
  O     -353.630     239.529    -310.519
  H     -353.748     241.748    -311.907
  H     -353.115     243.318    -307.838
  H     -354.756     242.759    -308.052
  H     -353.923     243.549    -309.369

 6  7  8  9  10  11  12  13  14  15  26  29  33  34 0
 6-311+G(2d,p)
 ****
 36  38  39  40  41 0
 6-311+G(2d,p)
 ****
 1  2  3  4  5  16  17  18  19  20  21  22  23  24  25 0
 3-21G
 ****
 27  28  30  31  32  35  37  42  43  44  45  46  47 0
 3-21G
 ****
 48  49 0
 3-21G
 ****


