%nproc=1
%NoSave
%Mem=1900MB
#P OB98/GEN NMR

erre ene a

0 1
  C      237.886     187.454     347.807
  O      237.442     187.240     346.471
  P      238.207     188.027     345.300
  C      237.818     190.268     343.994
  O      237.332     189.314     344.921
  C      237.024     191.584     344.090
  O      235.713     191.370     343.514
  C      236.768     192.091     345.506
  O      236.423     193.476     345.440
  C      235.551     191.286     345.905
  O      234.876     191.866     347.016
  C      234.744     191.227     344.586
  N      233.974     189.976     344.416
  C      232.636     189.962     344.799
  O      232.049     190.933     345.275
  N      231.981     188.769     344.656
  C      232.507     187.623     344.142
  O      231.900     186.561     344.116
  C      233.877     187.732     343.622
  C      234.541     188.874     343.791
  O      238.059     187.058     344.037
  O      239.635     188.323     345.615
  H      233.978     191.464     347.042
  H      238.902     186.610     343.856
  H      231.031     188.729     344.993
  H      234.308     186.860     343.144
  H      235.563     188.967     343.431
  H      234.028     192.060     344.524
  H      235.856     190.277     346.201
  H      237.600     191.944     346.199
  H      237.528     192.352     343.490
  H      237.761     189.862     342.980
  H      238.877     190.469     344.194
  P      236.965     194.441     346.600
  C      236.376     194.743     349.083
  O      235.918     194.330     347.809
  O      237.324     195.827     346.178
  O      238.238     193.642     347.164
  H      238.816     194.253     347.656
  H      235.523     195.113     349.657
  H      237.125     195.539     349.003
  H      236.812     193.888     349.602
  H      237.291     186.871     348.478
  H      237.789     188.491     348.053
  H      238.912     187.161     347.893

 3  4  5  6  7  8  9  10  11  12  13  23  28  29  30  31  32 0
 6-311+G(2d,p)
 ****
 33  34 0
 6-311+G(2d,p)
 ****
 1  2  14  15  16  17  18  19  20  21  22  24  25  26  27 0
 3-21G
 ****
 35  36  37  38  39  40  41  42  43  44  45 0
 3-21G
 ****


