%nproc=1
%NoSave
%Mem=1900MB
#P OB98/GEN NMR

erre ene a

0 1
  C      654.638    -110.032     -96.466
  O      654.436    -111.132     -95.597
  H      654.683    -109.119     -95.867
  H      653.811    -109.951     -97.175
  H      655.582    -110.152     -97.003
  P      654.304    -112.575     -96.285
  C      651.781    -112.095     -96.519
  O      652.979    -112.466     -97.189
  C      650.619    -112.982     -96.972
  O      650.320    -112.678     -98.357
  C      650.924    -114.478     -96.877
  O      649.748    -115.167     -96.455
  C      651.250    -114.867     -98.308
  O      651.011    -116.245     -98.574
  C      650.365    -113.907     -99.104
  N      649.354    -114.322    -104.086
  C      648.589    -114.515    -102.988
  N      648.933    -114.364    -101.691
  C      650.199    -113.928    -101.588
  C      651.101    -113.690    -102.612
  C      650.635    -113.912    -103.919
  N      651.409    -113.745    -105.043
  N      652.322    -113.293    -102.104
  C      652.159    -113.278    -100.789
  N      650.894    -113.671    -100.434
  O      654.347    -113.740     -95.354
  O      655.473    -112.525     -97.375
  H      651.590    -116.779     -97.992
  H      655.489    -111.669     -97.844
  H      647.565    -114.838    -103.176
  H      652.917    -113.006    -100.068
  H      649.342    -114.283     -99.223
  H      652.314    -114.667     -98.509
  H      651.748    -114.700     -96.196
  H      649.732    -112.718     -96.389
  H      651.542    -111.044     -96.724
  H      650.987    -113.909    -105.939
  H      652.362    -113.421    -104.938
  H      651.952    -112.211     -95.446
  P      649.561    -115.471     -94.890
  C      649.379    -118.051     -94.895
  O      650.185    -116.916     -94.570
  O      648.201    -115.218     -94.335
  O      650.642    -114.488     -94.224
  H      650.270    -114.130     -93.390
  H      649.903    -118.947     -94.635
  H      649.170    -118.051     -95.944
  H      648.460    -118.004     -94.348

 6  7  8  9  10  11  12  13  14  15  25  28  32  33  34  35 0
 6-311+G(2d,p)
 ****
 36  39  40 0
 6-311+G(2d,p)
 ****
 1  2  3  4  5  16  17  18  19  20  21  22  23  24 0
 3-21G
 ****
 26  27  29  30  31  37  38  41  42  43  44  45  46  47 0
 3-21G
 ****
 48 0
 3-21G
 ****


