%nproc=1
%NoSave
%Mem=1900MB
#P OB98/GEN NMR

erre ene a

0 1
  C      282.999     -32.381     397.262
  O      281.851     -32.443     396.435
  P      280.594     -33.285     396.969
  C      278.615     -31.583     396.943
  O      279.612     -32.254     397.705
  C      277.574     -30.971     397.881
  O      278.205     -30.058     398.808
  C      276.511     -30.153     397.161
  O      275.526     -30.986     396.571
  C      275.972     -29.283     398.289
  O      274.990     -29.990     399.059
  C      277.242     -29.032     399.131
  N      277.788     -27.692     398.929
  C      277.240     -26.685     399.720
  O      276.332     -26.892     400.527
  N      277.744     -25.428     399.523
  C      278.680     -25.075     398.596
  O      279.048     -23.920     398.426
  C      279.203     -26.175     397.766
  C      278.735     -27.410     397.962
  O      281.198     -34.159     398.166
  O      279.935     -34.137     395.936
  H      274.635     -29.354     399.716
  H      280.764     -35.031     398.191
  H      277.376     -24.691     400.103
  H      279.947     -25.929     397.020
  H      279.098     -28.232     397.355
  H      277.019     -29.154     400.196
  H      275.495     -28.370     397.916
  H      276.983     -29.508     396.408
  H      277.110     -31.780     398.463
  H      278.133     -32.296     396.272
  H      279.093     -30.805     396.338
  P      275.620     -31.211     394.983
  C      276.283     -33.710     395.361
  O      276.608     -32.459     394.796
  O      276.479     -29.928     394.551
  O      274.285     -31.318     394.330
  H      277.117     -29.665     395.237
  H      275.205     -33.895     395.334
  H      276.631     -33.741     396.399
  H      276.793     -34.496     394.799
  H      283.752     -31.791     396.783
  H      283.373     -33.370     397.428
  H      282.740     -31.935     398.200

 3  4  5  6  7  8  9  10  11  12  13  23  28  29  30  31  32 0
 6-311+G(2d,p)
 ****
 33  34 0
 6-311+G(2d,p)
 ****
 1  2  14  15  16  17  18  19  20  21  22  24  25  26 0
 3-21G
 ****
 27  35  36  37  38  39  40  41  42  43  44  45 0
 3-21G
 ****


