%nproc=1
%NoSave
%Mem=1900MB
#P OB98/GEN NMR

erre ene a

0 1
  C      121.747     -26.206      90.502
  O      120.949     -25.271      91.223
  P      121.660     -24.430      92.387
  C      122.774     -25.029      94.685
  O      121.958     -25.433      93.601
  C      122.716     -26.054      95.832
  O      121.413     -25.961      96.465
  C      122.858     -27.513      95.411
  O      123.209     -28.288      96.559
  C      121.445     -27.851      94.988
  O      121.231     -29.259      94.944
  C      120.596     -27.075      96.020
  N      119.312     -26.579      95.478
  C      118.240     -27.464      95.399
  O      118.294     -28.641      95.752
  N      117.087     -26.967      94.856
  C      116.889     -25.688      94.431
  O      115.865     -25.319      93.871
  C      118.004     -24.761      94.666
  C      119.146     -25.241      95.158
  O      120.492     -23.486      92.934
  O      122.844     -23.651      91.926
  H      120.313     -29.391      94.616
  H      120.626     -22.571      92.626
  H      116.324     -27.615      94.730
  H      117.861     -23.721      94.402
  H      119.988     -24.572      95.320
  H      120.360     -27.703      96.889
  H      121.259     -27.461      93.982
  H      123.579     -27.686      94.608
  H      123.468     -25.793      96.586
  H      122.460     -24.044      95.039
  H      123.811     -24.924      94.345
  P      124.746     -28.704      96.745
  C      126.106     -30.813      96.194
  O      124.957     -30.046      95.894
  O      125.249     -28.743      98.149
  O      125.521     -27.608      95.866
  H      126.457     -27.574      96.136
  H      125.894     -31.864      95.981
  H      126.390     -30.715      97.246
  H      126.934     -30.482      95.563
  H      121.146     -26.691      89.761
  H      122.139     -26.937      91.178
  H      122.555     -25.692      90.025

 3  4  5  6  7  8  9  10  11  12  13  23  28  29  30  31  32 0
 6-311+G(2d,p)
 ****
 33  34 0
 6-311+G(2d,p)
 ****
 1  2  14  15  16  17  18  19  20  21  22  24  25  26  27 0
 3-21G
 ****
 35  36  37  38  39  40  41  42  43  44  45 0
 3-21G
 ****


