%nproc=1
%NoSave
%Mem=1900MB
#P OB98/GEN NMR

erre ene a

0 1
  C      787.916    -707.083    1575.783
  O      788.102    -705.669    1575.709
  P      788.588    -704.827    1576.986
  C      787.415    -703.869    1579.063
  O      787.257    -704.626    1577.872
  C      786.392    -702.706    1579.086
  O      785.056    -703.278    1579.259
  C      786.547    -701.690    1580.215
  O      787.496    -700.652    1579.964
  C      785.132    -701.108    1580.259
  O      784.996    -700.151    1579.181
  C      784.256    -702.329    1579.997
  N      780.851    -701.963    1583.788
  C      781.072    -701.214    1582.677
  N      782.019    -701.358    1581.738
  C      782.761    -702.438    1581.982
  C      782.661    -703.303    1583.061
  C      781.662    -703.044    1584.017
  N      781.440    -703.823    1585.103
  N      783.604    -704.321    1582.983
  C      784.276    -704.060    1581.868
  N      783.796    -702.944    1581.223
  O      789.337    -703.581    1576.660
  O      789.441    -705.877    1577.854
  H      784.125    -699.692    1579.306
  H      789.989    -705.408    1578.521
  H      780.401    -700.356    1582.561
  H      785.095    -704.629    1581.475
  H      783.376    -702.101    1579.375
  H      784.934    -700.571    1581.178
  H      786.746    -702.196    1581.172
  H      786.402    -702.196    1578.099
  H      788.432    -703.423    1579.068
  H      780.600    -703.608    1585.658
  H      781.918    -704.734    1585.175
  H      787.299    -704.492    1579.937
  P      788.714    -700.506    1581.011
  C      788.858    -699.913    1583.566
  O      788.032    -700.112    1582.407
  O      789.813    -699.605    1580.541
  O      789.182    -702.023    1581.229
  H      788.526    -702.596    1581.703
  H      788.218    -699.503    1584.342
  H      789.656    -699.200    1583.347
  H      789.242    -700.886    1583.896
  H      787.592    -707.450    1574.832
  H      787.176    -707.307    1576.523
  H      788.841    -707.551    1576.050

 3  4  5  6  7  8  9  10  11  12  22  25  29  30  31  32 0
 6-311+G(2d,p)
 ****
 33  36  37 0
 6-311+G(2d,p)
 ****
 1  2  13  14  15  16  17  18  19  20  21  23  24  26 0
 3-21G
 ****
 27  28  34  35  38  39  40  41  42  43  44  45  46  47  48 0
 3-21G
 ****


