%nproc=1
%NoSave
%Mem=1900MB
#P OB98/GEN NMR

erre ene a

0 1
  C       -8.133      27.451       2.184
  O       -7.487      28.388       3.030
  P       -6.758      29.639       2.336
  C       -7.460      31.403       0.565
  O       -7.704      30.125       1.135
  C       -7.476      31.331      -0.963
  O       -6.327      30.556      -1.409
  C       -8.731      30.673      -1.558
  O       -9.004      31.347      -2.791
  C       -8.260      29.251      -1.801
  O       -9.079      28.515      -2.692
  C       -6.833      29.514      -2.273
  N       -5.228      25.374      -4.804
  C       -6.022      26.403      -5.174
  N       -6.399      27.476      -4.448
  C       -5.858      27.429      -3.219
  C       -5.047      26.438      -2.694
  C       -4.729      25.369      -3.547
  N       -3.924      24.315      -3.163
  N       -4.707      26.721      -1.387
  C       -5.306      27.864      -1.125
  N       -5.994      28.340      -2.207
  O       -5.523      28.962       1.579
  O       -6.317      30.715       3.279
  H       -8.753      27.597      -2.764
  H       -4.726      29.522       1.634
  H       -6.407      26.359      -6.189
  H       -5.284      28.378      -0.175
  H       -6.804      29.891      -3.303
  H       -8.257      28.709      -0.848
  H       -9.608      30.747      -0.907
  H       -7.356      32.346      -1.358
  H       -6.475      31.759       0.881
  H       -3.921      23.509      -3.771
  H       -3.733      24.219      -2.173
  H       -8.208      32.114       0.932
  P      -10.521      31.430      -3.310
  C      -12.665      32.428      -2.307
  O      -11.320      32.060      -2.068
  O      -10.955      29.891      -3.224
  O      -10.720      32.060      -4.645
  H      -10.746      29.507      -2.354
  H      -13.112      32.746      -1.362
  H      -13.229      31.575      -2.697
  H      -12.704      33.260      -3.015
  H       -8.572      26.677       2.778
  H       -7.417      27.023       1.513
  H       -8.897      27.946       1.622

 3  4  5  6  7  8  9  10  11  12  22  25  29  30  31  32 0
 6-311+G(2d,p)
 ****
 33  36  37 0
 6-311+G(2d,p)
 ****
 1  2  13  14  15  16  17  18  19  20  21  23  24  26 0
 3-21G
 ****
 27  28  34  35  38  39  40  41  42  43  44  45  46  47  48 0
 3-21G
 ****


