%nproc=1
%NoSave
%Mem=1900MB
#P OB98/GEN NMR

erre ene a

0 1
  C     -438.893    -148.452     -53.640
  O     -439.712    -147.508     -54.301
  P     -439.204    -146.009     -54.538
  C     -438.341    -146.699     -56.848
  O     -438.016    -146.066     -55.617
  C     -437.749    -145.942     -58.036
  O     -437.872    -146.762     -59.230
  C     -438.417    -144.594     -58.336
  O     -437.391    -143.724     -58.826
  C     -439.374    -144.938     -59.465
  O     -439.763    -143.803     -60.227
  C     -438.539    -145.958     -60.227
  N     -441.328    -146.153     -64.505
  C     -440.699    -145.131     -63.891
  N     -439.995    -145.154     -62.741
  C     -439.978    -146.393     -62.221
  C     -440.600    -147.525     -62.717
  C     -441.294    -147.379     -63.931
  N     -441.910    -148.416     -64.591
  N     -440.401    -148.596     -61.864
  C     -439.674    -148.114     -60.878
  N     -439.340    -146.805     -61.083
  O     -438.882    -145.242     -53.299
  O     -440.398    -145.320     -55.348
  H     -438.968    -143.430     -60.652
  H     -440.889    -144.711     -54.762
  H     -440.759    -144.167     -64.391
  H     -439.362    -148.665     -60.002
  H     -437.770    -145.483     -60.848
  H     -440.281    -145.395     -59.051
  H     -438.925    -144.147     -57.476
  H     -436.674    -145.804     -57.852
  H     -439.430    -146.718     -56.941
  H     -442.261    -148.228     -65.516
  H     -441.680    -149.372     -64.330
  H     -437.978    -147.733     -56.839
  P     -437.646    -142.141     -58.885
  C     -437.594    -142.420     -56.339
  O     -438.157    -141.711     -57.430
  O     -438.485    -141.671     -60.024
  O     -436.166    -141.527     -58.944
  H     -436.209    -140.604     -59.260
  H     -438.107    -143.378     -56.229
  H     -437.728    -141.832     -55.427
  H     -436.526    -142.594     -56.495
  H     -439.406    -149.389     -53.580
  H     -438.671    -148.103     -52.653
  H     -437.982    -148.579     -54.187

 3  4  5  6  7  8  9  10  11  12  22  25  29  30  31  32 0
 6-311+G(2d,p)
 ****
 33  36  37 0
 6-311+G(2d,p)
 ****
 1  2  13  14  15  16  17  18  19  20  21  23  24  26 0
 3-21G
 ****
 27  28  34  35  38  39  40  41  42  43  44  45  46  47  48 0
 3-21G
 ****


