%nproc=1
%NoSave
%Mem=1900MB
#P OB98/GEN NMR

erre ene a

0 1
  C      -89.062     -17.788     -97.116
  O      -88.486     -18.052     -95.839
  P      -89.306     -17.585     -94.543
  C      -89.432     -19.986     -93.491
  O      -89.015     -18.637     -93.372
  C      -88.999     -20.811     -92.268
  O      -87.580     -21.099     -92.388
  C      -89.156     -20.113     -90.921
  O      -89.130     -21.103     -89.886
  C      -87.893     -19.280     -90.854
  O      -87.611     -18.859     -89.523
  C      -86.844     -20.216     -91.499
  N      -85.795     -19.499     -92.251
  C      -84.802     -18.834     -91.534
  O      -84.747     -18.803     -90.304
  N      -83.875     -18.153     -92.275
  C      -83.815     -18.107     -93.636
  O      -83.012     -17.412     -94.249
  C      -84.798     -18.938     -94.344
  C      -85.731     -19.576     -93.633
  O      -90.831     -17.859     -94.949
  O      -89.073     -16.161     -94.164
  H      -86.708     -18.463     -89.543
  H      -91.282     -17.016     -95.148
  H      -83.190     -17.611     -91.766
  H      -84.739     -18.981     -95.424
  H      -86.478     -20.179     -94.143
  H      -86.342     -20.828     -90.739
  H      -88.015     -18.381     -91.463
  H      -90.056     -19.502     -90.829
  H      -89.530     -21.768     -92.273
  H      -89.027     -20.420     -94.409
  H      -90.526     -20.024     -93.586
  P      -90.331     -21.114     -88.826
  C      -90.049     -23.630     -88.384
  O      -90.033     -22.332     -87.825
  O      -91.708     -21.068     -89.397
  O      -90.021     -19.828     -87.916
  H      -90.825     -19.566     -87.436
  H      -89.367     -24.268     -87.814
  H      -89.731     -23.620     -89.431
  H      -91.060     -24.042     -88.317
  H      -88.411     -18.151     -97.883
  H      -89.199     -16.733     -97.234
  H      -90.009     -18.281     -97.189

 3  4  5  6  7  8  9  10  11  12  13  23  28  29  30  31  32 0
 6-311+G(2d,p)
 ****
 33  34 0
 6-311+G(2d,p)
 ****
 1  2  14  15  16  17  18  19  20  21  22  24  25  26  27 0
 3-21G
 ****
 35  36  37  38  39  40  41  42  43  44  45 0
 3-21G
 ****


