%nproc=1
%NoSave
%Mem=1900MB
#P OB98/GEN NMR

erre ene a

0 1
  C      220.836      55.898    -175.872
  O      222.117      56.486    -175.986
  H      220.704      55.122    -176.632
  H      220.746      55.445    -174.882
  H      220.061      56.661    -175.983
  P      222.485      57.117    -177.415
  C      223.924      59.135    -178.171
  O      223.180      58.535    -177.123
  C      224.618      60.395    -177.669
  O      223.664      61.467    -177.518
  C      225.285      60.257    -176.301
  O      226.540      59.594    -176.389
  C      225.450      61.719    -175.919
  O      226.609      62.265    -176.577
  C      224.173      62.358    -176.492
  N      222.340      65.567    -172.923
  C      223.411      65.650    -173.746
  N      223.843      64.756    -174.659
  C      223.034      63.680    -174.697
  C      221.914      63.458    -173.923
  C      221.567      64.456    -172.993
  N      220.487      64.352    -172.149
  N      221.329      62.254    -174.250
  C      222.081      61.755    -175.206
  N      223.135      62.579    -175.506
  O      221.058      57.524    -178.023
  O      223.236      56.213    -178.338
  H      227.378      61.761    -176.251
  H      221.073      57.380    -178.990
  H      223.999      66.560    -173.662
  H      221.908      60.809    -175.705
  H      224.388      63.316    -176.981
  H      225.578      61.871    -174.847
  H      224.619      59.766    -175.585
  H      225.350      60.703    -178.428
  H      223.249      59.400    -178.990
  H      220.178      65.175    -171.655
  H      219.906      63.519    -172.214
  H      224.663      58.413    -178.537
  P      226.934      58.603    -175.188
  C      228.673      56.691    -174.924
  O      227.986      57.565    -175.815
  O      225.615      57.719    -174.994
  O      227.347      59.276    -173.922
  H      225.575      57.377    -174.081
  H      229.335      56.062    -175.481
  H      227.963      56.086    -174.400
  H      229.237      57.269    -174.222

 6  7  8  9  10  11  12  13  14  15  25  28  32  33  34  35 0
 6-311+G(2d,p)
 ****
 36  39  40 0
 6-311+G(2d,p)
 ****
 1  2  3  4  5  16  17  18  19  20  21  22  23  24 0
 3-21G
 ****
 26  27  29  30  31  37  38  41  42  43  44  45  46  47  48 0
 3-21G
 ****


