%nproc=1
%NoSave
%Mem=1900MB
#P OB98/GEN NMR

erre ene a

0 1
  C        8.675     150.743     -74.191
  O        8.200     151.625     -73.169
  P        6.622     151.641     -72.883
  C        5.805     153.578     -74.420
  O        5.872     152.174     -74.194
  C        5.152     153.863     -75.774
  O        5.891     153.251     -76.848
  C        3.746     153.303     -75.889
  O        2.822     154.129     -75.207
  C        3.540     153.268     -77.400
  O        2.976     154.495     -77.889
  C        4.975     153.068     -77.941
  N        5.160     151.772     -78.574
  C        4.563     151.615     -79.829
  O        3.907     152.533     -80.325
  N        4.704     150.411     -80.476
  C        5.360     149.448     -79.906
  N        5.460     148.278     -80.595
  C        5.980     149.565     -78.573
  C        5.841     150.743     -77.967
  O        6.451     152.846     -71.843
  O        6.096     150.357     -72.330
  H        3.484     155.211     -77.454
  H        5.721     152.658     -71.226
  H        6.510     148.731     -78.137
  H        6.265     150.920     -76.984
  H        5.213     153.841     -78.682
  H        2.853     152.467     -77.689
  H        3.714     152.283     -75.487
  H        5.137     154.951     -75.931
  H        5.020     148.232     -81.505
  H        6.806     154.012     -74.390
  H        5.940     147.462     -80.244
  H        5.238     154.040     -73.604
  P        2.071     153.516     -73.934
  C       -0.424     153.433     -74.530
  O        0.806     152.734     -74.533
  O        1.382     154.815     -73.293
  O        2.900     152.777     -72.939
  H        0.963     154.588     -72.444
  H       -1.142     152.882     -75.145
  H       -0.300     154.434     -74.948
  H       -0.811     153.499     -73.510
  H        9.738     150.834     -74.275
  H        8.220     151.001     -75.124
  H        8.422     149.735     -73.938

 3  4  5  6  7  8  9  10  11  12  13  21  23  27  28  29  30  32 0
 6-311+G(2d,p)
 ****
 34  35 0
 6-311+G(2d,p)
 ****
 1  2  14  15  16  17  18  19  20  22  24  25  26 0
 3-21G
 ****
 31  33  36  37  38  39  40  41  42  43  44  45  46 0
 3-21G
 ****


