%nproc=1
%NoSave
%Mem=1900MB
#P OB98/GEN NMR

erre ene a

0 1
  C       98.056     101.058      33.000
  O       96.684     100.937      32.669
  P       96.153     101.765      31.399
  C       95.847     103.850      32.918
  O       96.412     103.314      31.727
  C       95.763     105.376      32.856
  O       95.069     105.856      34.032
  C       97.124     106.073      32.790
  O       96.992     107.210      31.936
  C       97.345     106.551      34.213
  O       98.237     107.662      34.264
  C       95.904     106.854      34.655
  N       95.758     106.844      36.106
  C       95.581     108.081      36.732
  O       95.631     109.118      36.072
  N       95.403     108.116      38.093
  C       95.504     107.021      38.780
  N       95.317     107.107      40.125
  C       95.813     105.712      38.172
  C       95.905     105.694      36.844
  O       94.565     101.623      31.518
  O       96.668     101.283      30.083
  H       99.088     107.388      33.853
  H       94.149     101.616      30.636
  H       95.923     104.837      38.796
  H       96.107     104.775      36.310
  H       95.584     107.835      34.279
  H       97.768     105.739      34.818
  H       97.918     105.420      32.418
  H       95.155     105.650      31.986
  H       95.120     108.018      40.519
  H       96.480     103.577      33.766
  H       95.377     106.307      40.741
  H       94.856     103.414      33.076
  P       98.211     107.542      30.948
  C       98.444     109.914      31.901
  O       99.069     108.661      31.711
  O       97.476     108.418      29.820
  O       98.963     106.406      30.342
  H       98.108     108.636      29.112
  H       99.078     110.528      32.546
  H       97.471     109.788      32.380
  H       98.327     110.422      30.939
  H       98.270     100.458      33.860
  H       98.282     102.082      33.214
  H       98.652     100.726      32.176

 3  4  5  6  7  8  9  10  11  12  13  21  23  27  28  29  30  32 0
 6-311+G(2d,p)
 ****
 34  35 0
 6-311+G(2d,p)
 ****
 1  2  14  15  16  17  18  19  20  22  24  25  26 0
 3-21G
 ****
 31  33  36  37  38  39  40  41  42  43  44  45  46 0
 3-21G
 ****


