%nproc=1
%NoSave
%Mem=1900MB
#P OB98/GEN NMR

erre ene a

0 1
  C      401.420      42.884    -153.351
  O      401.802      43.358    -154.629
  P      401.962      44.951    -154.798
  C      400.074      45.927    -156.328
  O      400.478      45.522    -155.026
  C      399.422      44.748    -157.053
  O      398.650      43.953    -156.125
  C      398.461      45.150    -158.170
  O      399.181      45.448    -159.356
  C      397.583      43.905    -158.277
  O      398.225      42.881    -159.059
  C      397.449      43.481    -156.809
  N      392.465      42.890    -156.215
  C      393.327      42.288    -157.112
  N      392.793      41.356    -157.930
  N      394.605      42.561    -157.190
  C      394.995      43.519    -156.313
  C      394.234      44.207    -155.388
  C      392.836      43.852    -155.280
  O      392.048      44.282    -154.444
  N      394.981      45.119    -154.689
  C      396.200      44.966    -155.172
  N      396.269      43.998    -156.136
  O      402.660      45.097    -156.230
  O      402.726      45.638    -153.708
  H      398.519      43.256    -159.907
  H      403.625      45.231    -156.132
  H      391.489      42.626    -156.192
  H      397.066      45.521    -154.835
  H      397.429      42.392    -156.698
  H      396.627      44.123    -158.770
  H      391.814      41.108    -157.943
  H      397.858      46.006    -157.859
  H      393.411      40.906    -158.602
  H      400.222      44.105    -157.447
  H      400.955      46.254    -156.892
  H      399.380      46.765    -156.241
  P      398.540      46.532    -160.354
  C      397.445      45.608    -162.529
  O      397.338      45.803    -161.132
  O      399.674      46.700    -161.475
  O      398.200      47.840    -159.718
  H      399.696      47.634    -161.773
  H      396.888      44.710    -162.801
  H      398.487      45.489    -162.842
  H      397.012      46.474    -163.048
  H      401.350      41.817    -153.373
  H      400.470      43.299    -153.086
  H      402.152      43.178    -152.628

 3  4  5  6  7  8  9  10  11  12  23  26  30  31 0
 6-311+G(2d,p)
 ****
 33  35  36  37  38 0
 6-311+G(2d,p)
 ****
 1  2  13  14  15  16  17  18  19  20  21  22  24  25 0
 3-21G
 ****
 27  28  29  32  34  39  40  41  42  43  44  45  46  47  48  49 0
 3-21G
 ****


