%nproc=1
%NoSave
%Mem=1900MB
#P OB98/GEN NMR

erre ene a

0 1
  C     -644.679     -31.221     124.355
  O     -644.157     -29.941     124.673
  P     -644.785     -28.676     123.921
  C     -645.178     -27.380     126.153
  O     -644.567     -27.402     124.870
  C     -644.820     -26.076     126.873
  O     -643.415     -26.056     127.206
  C     -645.058     -24.830     126.034
  O     -646.434     -24.475     126.021
  C     -644.176     -23.810     126.738
  O     -644.846     -23.242     127.873
  C     -642.980     -24.677     127.187
  N     -641.804     -24.491     126.349
  C     -641.217     -23.231     126.393
  O     -641.667     -22.313     127.079
  N     -640.120     -23.048     125.601
  C     -639.593     -23.965     124.730
  O     -638.641     -23.725     123.998
  C     -640.271     -25.273     124.704
  C     -641.332     -25.469     125.494
  O     -646.366     -28.930     123.991
  O     -644.318     -28.489     122.518
  H     -644.210     -22.631     128.296
  H     -646.792     -28.603     123.174
  H     -639.665     -22.149     125.635
  H     -639.882     -26.024     124.030
  H     -641.852     -26.421     125.477
  H     -642.710     -24.434     128.223
  H     -643.900     -22.977     126.081
  H     -644.682     -24.986     125.014
  H     -645.394     -26.029     127.807
  H     -644.821     -28.233     126.740
  H     -646.265     -27.470     126.036
  P     -646.927     -23.556     124.791
  C     -648.983     -25.090     124.266
  O     -648.504     -23.827     124.685
  O     -646.285     -24.341     123.553
  O     -646.503     -22.133     124.918
  H     -646.239     -25.301     123.703
  H     -648.342     -25.898     124.630
  H     -649.021     -25.119     123.178
  H     -649.991     -25.230     124.661
  H     -644.169     -31.967     124.929
  H     -644.538     -31.415     123.312
  H     -645.724     -31.247     124.584

 3  4  5  6  7  8  9  10  11  12  13  23  28  29  30  31  32 0
 6-311+G(2d,p)
 ****
 33  34 0
 6-311+G(2d,p)
 ****
 1  2  14  15  16  17  18  19  20  21  22  24  25  26 0
 3-21G
 ****
 27  35  36  37  38  39  40  41  42  43  44  45 0
 3-21G
 ****


