%nproc=1
%NoSave
%Mem=1900MB
#P OB98/GEN NMR

erre ene a

0 1
  C     -892.940     303.817    -895.230
  O     -893.660     304.442    -896.300
  P     -895.220     304.073    -896.420
  C     -895.990     306.474    -897.140
  O     -896.070     305.421    -896.160
  C     -895.560     307.764    -896.460
  O     -894.230     307.655    -895.850
  C     -895.440     308.940    -897.440
  O     -896.740     309.433    -897.760
  C     -894.600     309.915    -896.590
  O     -895.420     310.590    -895.630
  C     -893.630     308.955    -895.900
  N     -889.030     311.168    -896.400
  C     -890.110     311.505    -895.680
  N     -891.280     310.870    -895.610
  C     -891.300     309.760    -896.370
  C     -890.270     309.284    -897.180
  C     -889.070     310.048    -897.180
  N     -887.990     309.726    -897.930
  N     -890.620     308.122    -897.810
  C     -891.900     307.922    -897.430
  N     -892.320     308.878    -896.550
  O     -895.500     303.200    -895.100
  O     -895.560     303.318    -897.670
  H     -895.840     309.902    -895.060
  H     -895.620     302.258    -895.360
  H     -890.010     312.405    -895.070
  H     -892.490     307.087    -897.750
  H     -893.420     309.254    -894.850
  H     -894.100     310.674    -897.220
  H     -894.910     308.645    -898.330
  H     -896.260     307.998    -895.650
  H     -896.950     306.615    -897.630
  H     -887.200     310.363    -897.940
  H     -888.030     308.935    -898.580
  H     -895.260     306.174    -897.900
  P     -897.240     309.238    -899.260
  C     -899.440     308.026    -898.720
  O     -898.140     307.889    -899.230
  O     -895.880     308.753    -900.000
  O     -897.890     310.419    -899.880
  H     -895.430     308.033    -899.480
  H     -899.930     307.049    -898.760
  H     -900.000     308.753    -899.330
  H     -899.390     308.373    -897.690
  H     -891.919     304.137    -895.252
  H     -892.983     302.754    -895.344
  H     -893.380     304.093    -894.295

 3  4  5  6  7  8  9  10  11  12  22  25  29  30  31  32 0
 6-311+G(2d,p)
 ****
 33  36  37 0
 6-311+G(2d,p)
 ****
 1  2  13  14  15  16  17  18  19  20  21  23  24  26 0
 3-21G
 ****
 27  28  34  35  38  39  40  41  42  43  44  45  46  47  48 0
 3-21G
 ****


