%nproc=1
%NoSave
%Mem=1900MB
#P OB98/GEN NMR

erre ene a

0 1
  C     -500.542    -583.706     -81.830
  O     -501.119    -583.862     -80.535
  P     -500.687    -582.801     -79.411
  C     -503.121    -582.799     -78.534
  O     -501.743    -582.882     -78.206
  C     -503.689    -584.166     -78.927
  O     -503.655    -585.087     -77.798
  C     -505.139    -584.116     -79.415
  O     -505.298    -585.127     -80.419
  C     -505.927    -584.518     -78.185
  O     -507.238    -584.966     -78.527
  C     -504.992    -585.577     -77.605
  N     -507.981    -588.067     -74.294
  C     -507.967    -588.028     -75.643
  N     -507.150    -587.318     -76.452
  C     -506.247    -586.631     -75.725
  C     -506.148    -586.568     -74.348
  C     -507.074    -587.330     -73.617
  N     -507.109    -587.355     -72.239
  N     -505.127    -585.720     -73.972
  C     -504.626    -585.274     -75.109
  N     -505.249    -585.820     -76.193
  O     -501.001    -581.391     -80.096
  O     -499.251    -582.903     -79.010
  H     -507.672    -585.290     -77.712
  H     -500.169    -580.945     -80.343
  H     -508.717    -588.641     -76.142
  H     -503.822    -584.560     -75.199
  H     -505.083    -586.546     -78.115
  H     -506.021    -583.664     -77.504
  H     -505.452    -583.144     -79.816
  H     -503.052    -584.589     -79.716
  H     -503.270    -582.099     -79.361
  H     -507.823    -587.902     -71.790
  H     -506.464    -586.776     -71.721
  H     -503.667    -582.374     -77.682
  P     -505.646    -584.619     -81.897
  C     -504.260    -586.257     -83.359
  O     -505.531    -585.900     -82.851
  O     -504.375    -583.730     -82.301
  O     -506.922    -583.851     -81.995
  H     -504.629    -583.067     -82.969
  H     -504.161    -587.347     -83.327
  H     -503.444    -585.815     -82.776
  H     -504.185    -585.922     -84.392
  H     -500.911    -584.472     -82.479
  H     -499.477    -583.782     -81.758
  H     -500.805    -582.747     -82.224

 3  4  5  6  7  8  9  10  11  12  22  25  29  30  31  32 0
 6-311+G(2d,p)
 ****
 33  36  37 0
 6-311+G(2d,p)
 ****
 1  2  13  14  15  16  17  18  19  20  21  23  24  26 0
 3-21G
 ****
 27  28  34  35  38  39  40  41  42  43  44  45  46  47  48 0
 3-21G
 ****


