%nproc=1
%NoSave
%Mem=1900MB
#P OB98/GEN NMR

erre ene a

0 1
  C      191.940     141.321    -323.666
  O      190.770     141.119    -322.899
  H      191.649     141.505    -324.706
  H      192.585     140.441    -323.632
  H      192.484     142.195    -323.296
  P      190.934     140.579    -321.398
  C      189.218     142.397    -320.751
  O      189.597     141.028    -320.630
  C      187.950     142.692    -319.945
  O      188.183     142.436    -318.546
  C      187.505     144.144    -320.012
  O      187.012     144.536    -321.279
  C      186.615     144.272    -318.787
  O      185.267     143.873    -319.019
  C      187.288     143.284    -317.801
  N      187.971     143.979    -316.714
  C      187.268     145.020    -316.126
  O      186.147     145.379    -316.485
  N      187.914     145.684    -315.117
  C      189.188     145.441    -314.691
  O      189.729     146.098    -313.806
  C      189.892     144.343    -315.368
  C      189.263     143.672    -316.336
  O      192.198     140.977    -320.697
  O      190.754     138.997    -321.542
  H      184.758     144.099    -318.216
  H      191.092     138.523    -320.742
  H      187.416     146.436    -314.668
  H      190.906     144.125    -315.059
  H      189.765     142.856    -316.857
  H      186.532     142.626    -317.354
  H      186.583     145.301    -318.419
  H      188.382     144.777    -319.824
  H      187.160     142.015    -320.287
  H      189.025     142.596    -321.810
  H      190.045     143.037    -320.418
  P      187.330     145.955    -321.941
  C      186.933     144.704    -324.189
  O      186.811     145.922    -323.466
  O      188.672     146.544    -321.654
  O      186.227     146.894    -321.225
  H      186.628     147.777    -321.111
  H      186.549     144.837    -325.179
  H      186.378     143.937    -323.691
  H      187.964     144.422    -324.241

 6  7  8  9  10  11  12  13  14  15  16  26  31  32  33  34  35 0
 6-311+G(2d,p)
 ****
 36  37 0
 6-311+G(2d,p)
 ****
 1  2  3  4  5  17  18  19  20  21  22  23  24  25 0
 3-21G
 ****
 27  28  29  30  38  39  40  41  42  43  44  45 0
 3-21G
 ****


