%nproc=1
%NoSave
%Mem=1900MB
#P OB98/GEN NMR

erre ene a

0 1
  C      170.048     -16.486      13.365
  O      169.683     -16.080      14.667
  H      170.342     -17.538      13.366
  H      169.188     -16.362      12.702
  H      170.871     -15.870      12.993
  P      170.801     -16.221      15.809
  C      172.524     -14.569      14.797
  O      171.607     -14.830      15.850
  C      173.624     -13.631      15.286
  O      174.789     -13.814      14.442
  C      173.250     -12.139      15.267
  O      173.382     -11.579      16.577
  C      174.293     -11.498      14.363
  O      174.752     -10.236      14.841
  C      175.415     -12.530      14.332
  N      179.108      -9.929      11.975
  C      178.810     -10.069      13.285
  N      177.880     -10.861      13.854
  C      177.234     -11.581      12.921
  C      177.443     -11.565      11.553
  C      178.420     -10.674      11.078
  N      178.685     -10.492       9.739
  N      176.579     -12.437      10.915
  C      175.834     -12.938      11.879
  N      176.181     -12.435      13.106
  O      171.854     -17.244      15.168
  O      170.300     -16.700      17.130
  H      175.359      -9.883      14.163
  H      172.073     -17.938      15.817
  H      179.392      -9.456      13.968
  H      175.009     -13.625      11.743
  H      176.105     -12.415      15.177
  H      173.859     -11.354      13.367
  H      172.238     -11.962      14.887
  H      173.911     -13.937      16.300
  H      171.998     -14.093      13.962
  H      179.318      -9.751       9.484
  H      178.102     -10.963       9.063
  H      172.946     -15.517      14.449
  P      172.034     -11.465      17.450
  C      171.442     -13.818      18.392
  O      172.114     -12.583      18.599
  O      170.916     -12.036      16.458
  O      171.724     -10.081      17.908
  H      170.047     -11.650      16.676
  H      171.590     -14.451      19.242
  H      171.835     -14.296      17.519
  H      170.396     -13.637      18.260

 6  7  8  9  10  11  12  13  14  15  25  28  32  33  34  35 0
 6-311+G(2d,p)
 ****
 36  39  40 0
 6-311+G(2d,p)
 ****
 1  2  3  4  5  16  17  18  19  20  21  22  23  24 0
 3-21G
 ****
 26  27  29  30  31  37  38  41  42  43  44  45  46  47  48 0
 3-21G
 ****


