%nproc=1
%NoSave
%Mem=1900MB
#P OB98/GEN NMR

erre ene a

0 1
  C      -15.477     120.825    -320.167
  O      -16.737     121.439    -320.360
  H      -14.813     121.539    -319.674
  H      -15.037     120.543    -321.127
  H      -15.576     119.943    -319.530
  P      -17.891     120.589    -321.075
  C      -19.480     120.394    -319.049
  O      -18.578     119.719    -319.916
  C      -20.896     119.872    -319.259
  O      -20.913     118.432    -319.218
  C      -21.895     120.348    -318.206
  O      -22.343     121.660    -318.504
  C      -22.979     119.295    -318.360
  O      -23.762     119.572    -319.537
  C      -22.145     118.019    -318.564
  N      -22.647     113.700    -315.960
  C      -23.201     114.077    -317.169
  N      -24.043     113.190    -317.742
  N      -22.967     115.225    -317.750
  C      -22.162     116.035    -317.025
  C      -21.568     115.781    -315.811
  C      -21.789     114.485    -315.204
  O      -21.304     114.105    -314.143
  N      -20.871     116.870    -315.353
  C      -21.014     117.768    -316.308
  N      -21.802     117.315    -317.340
  O      -17.480     119.783    -322.270
  O      -19.008     121.674    -321.434
  H      -24.179     118.731    -319.798
  H      -18.884     122.022    -322.336
  H      -22.882     112.809    -315.555
  H      -20.568     118.755    -316.304
  H      -22.641     117.298    -319.223
  H      -23.665     119.258    -317.515
  H      -24.470     112.441    -317.213
  H      -21.483     120.276    -317.194
  H      -24.498     113.468    -318.601
  H      -21.217     120.168    -320.266
  H      -19.426     121.462    -319.284
  H      -19.185     120.248    -318.005
  P      -23.194     122.507    -317.438
  C      -21.146     124.046    -317.106
  O      -22.102     123.195    -316.489
  O      -24.245     121.732    -316.719
  O      -23.760     123.746    -318.269
  H      -24.629     123.565    -318.706
  H      -20.482     124.435    -316.362
  H      -21.650     124.855    -317.593
  H      -20.586     123.489    -317.827

 6  7  8  9  10  11  12  13  14  15  26  29  33  34 0
 6-311+G(2d,p)
 ****
 36  38  39  40  41 0
 6-311+G(2d,p)
 ****
 1  2  3  4  5  16  17  18  19  20  21  22  23  24  25 0
 3-21G
 ****
 27  28  30  31  32  35  37  42  43  44  45  46  47 0
 3-21G
 ****
 48  49 0
 3-21G
 ****


