%nproc=1
%NoSave
%Mem=1900MB
#P OB98/GEN NMR

erre ene a

0 1
  C      318.788    -329.293    -930.362
  O      317.880    -330.063    -929.591
  H      318.381    -329.171    -931.370
  H      319.758    -329.815    -930.432
  H      318.933    -328.305    -929.909
  P      318.337    -330.405    -928.088
  C      315.891    -331.073    -927.540
  O      317.262    -331.459    -927.528
  C      314.993    -332.293    -927.344
  O      314.985    -333.136    -928.529
  C      315.396    -333.194    -926.172
  O      314.880    -332.695    -924.954
  C      314.770    -334.513    -926.582
  O      313.361    -334.534    -926.281
  C      314.988    -334.522    -928.115
  N      317.292    -338.971    -928.778
  C      316.050    -338.680    -928.253
  N      315.328    -339.723    -927.799
  N      315.565    -337.467    -928.148
  C      316.425    -336.508    -928.586
  C      317.675    -336.669    -929.129
  C      318.170    -338.014    -929.292
  O      319.234    -338.354    -929.827
  N      318.233    -335.459    -929.481
  C      317.329    -334.566    -929.093
  N      316.212    -335.160    -928.551
  O      317.996    -329.063    -927.285
  O      319.769    -330.789    -927.920
  H      313.005    -335.413    -926.474
  H      318.700    -328.915    -926.616
  H      317.599    -339.920    -928.860
  H      317.430    -333.500    -929.215
  H      314.168    -335.030    -928.640
  H      315.219    -335.357    -926.051
  H      315.744    -340.621    -927.580
  H      316.491    -333.307    -926.135
  H      314.450    -339.502    -927.330
  H      313.960    -331.924    -927.208
  H      315.667    -330.611    -928.524
  H      315.703    -330.343    -926.752
  P      315.925    -332.362    -923.783
  C      314.861    -330.285    -922.638
  O      315.113    -331.681    -922.569
  O      316.782    -331.138    -924.388
  O      316.803    -333.515    -923.394
  H      317.672    -331.470    -924.659
  H      314.317    -329.977    -921.769
  H      314.286    -330.069    -923.514
  H      315.790    -329.757    -922.683

 6  7  8  9  10  11  12  13  14  15  26  29  33  34 0
 6-311+G(2d,p)
 ****
 36  38  39  40  41 0
 6-311+G(2d,p)
 ****
 1  2  3  4  5  16  17  18  19  20  21  22  23  24  25 0
 3-21G
 ****
 27  28  30  31  32  35  37  42  43  44  45  46  47 0
 3-21G
 ****
 48  49 0
 3-21G
 ****


