%nproc=1
%NoSave
%Mem=1900MB
#P OB98/GEN NMR

erre ene a

0 1
  C     -212.475     -20.758      18.829
  O     -212.753     -20.791      20.227
  P     -211.760     -21.605      21.185
  C     -210.960     -19.718      22.754
  O     -211.745     -20.899      22.627
  C     -211.261     -19.011      24.086
  O     -212.509     -18.278      23.957
  C     -211.450     -19.945      25.286
  O     -210.302     -20.310      26.046
  C     -212.321     -19.084      26.199
  O     -211.492     -18.177      26.951
  C     -213.193     -18.294      25.227
  N     -218.203     -17.365      25.690
  C     -217.116     -16.595      25.919
  N     -215.816     -16.919      25.772
  C     -215.685     -18.178      25.326
  C     -216.699     -19.079      25.047
  C     -218.015     -18.630      25.248
  N     -219.122     -19.417      25.026
  N     -216.178     -20.282      24.617
  C     -214.871     -20.115      24.657
  N     -214.523     -18.857      25.065
  O     -210.420     -21.927      20.615
  O     -212.587     -22.949      21.477
  H     -210.864     -18.730      27.452
  H     -211.967     -23.702      21.510
  H     -217.318     -15.586      26.269
  H     -214.145     -20.872      24.401
  H     -213.325     -17.252      25.539
  H     -212.875     -19.680      26.931
  H     -211.999     -20.847      24.994
  H     -210.462     -18.289      24.297
  H     -211.177     -19.045      21.922
  H     -220.028     -19.033      25.238
  H     -218.997     -20.380      24.753
  H     -209.914     -20.009      22.660
  P     -209.352     -21.518      25.595
  C     -206.938     -20.557      25.906
  O     -207.996     -21.331      26.428
  O     -209.162     -21.659      24.124
  O     -210.036     -22.780      26.300
  H     -209.972     -22.782      27.269
  H     -206.209     -20.378      26.701
  H     -207.304     -19.595      25.541
  H     -206.448     -21.101      25.094
  H     -213.224     -20.179      18.330
  H     -212.478     -21.755      18.441
  H     -211.515     -20.315      18.667

 3  4  5  6  7  8  9  10  11  12  22  25  29  30  31  32 0
 6-311+G(2d,p)
 ****
 33  36  37 0
 6-311+G(2d,p)
 ****
 1  2  13  14  15  16  17  18  19  20  21  23  24  26 0
 3-21G
 ****
 27  28  34  35  38  39  40  41  42  43  44  45  46  47  48 0
 3-21G
 ****


