%nproc=1
%NoSave
%Mem=1900MB
#P OB98/GEN NMR

erre ene a

0 1
  C      -26.393     378.156    -234.762
  O      -27.359     377.191    -234.389
  H      -25.501     377.637    -235.118
  H      -26.124     378.771    -233.898
  H      -26.782     378.786    -235.565
  P      -28.764     377.755    -233.854
  C      -29.628     377.916    -236.290
  O      -29.339     378.609    -235.084
  C      -31.137     377.747    -236.464
  O      -31.708     377.082    -235.322
  C      -31.900     379.062    -236.598
  O      -31.818     379.560    -237.923
  C      -33.309     378.608    -236.252
  O      -33.909     377.969    -237.397
  C      -33.067     377.569    -235.140
  N      -34.773     376.496    -230.422
  C      -34.924     375.851    -231.597
  N      -34.480     376.218    -232.820
  C      -33.813     377.382    -232.758
  C      -33.581     378.154    -231.627
  C      -34.083     377.661    -230.411
  N      -33.920     378.321    -229.209
  N      -32.861     379.284    -231.947
  C      -32.622     379.175    -233.242
  N      -33.206     378.057    -233.782
  O      -28.724     378.439    -232.533
  O      -29.667     376.430    -233.911
  H      -34.000     378.641    -238.095
  H      -29.451     375.903    -234.702
  H      -35.474     374.915    -231.555
  H      -32.017     379.858    -233.821
  H      -33.738     376.710    -235.236
  H      -33.957     379.443    -235.978
  H      -31.568     379.796    -235.861
  H      -31.306     377.104    -237.335
  H      -29.144     376.932    -236.287
  H      -34.456     377.989    -228.424
  H      -33.515     379.243    -229.227
  H      -29.216     378.498    -237.114
  P      -31.754     381.138    -238.201
  C      -29.305     381.447    -238.924
  O      -30.250     381.600    -237.871
  O      -32.807     381.943    -237.523
  O      -31.832     381.272    -239.792
  H      -32.369     382.046    -240.039
  H      -28.345     381.784    -238.593
  H      -29.615     382.026    -239.768
  H      -29.245     380.415    -239.202

 6  7  8  9  10  11  12  13  14  15  25  28  32  33  34  35 0
 6-311+G(2d,p)
 ****
 36  39  40 0
 6-311+G(2d,p)
 ****
 1  2  3  4  5  16  17  18  19  20  21  22  23  24 0
 3-21G
 ****
 26  27  29  30  31  37  38  41  42  43  44  45  46  47 0
 3-21G
 ****
 48 0
 3-21G
 ****


