%nproc=1
%NoSave
%Mem=1900MB
#P OB98/GEN NMR

erre ene a

0 1
  C     -197.064    -341.028     203.507
  O     -195.875    -340.968     204.276
  H     -196.894    -341.678     202.644
  H     -197.330    -340.027     203.150
  H     -197.881    -341.439     204.105
  P     -195.928    -340.071     205.603
  C     -195.811    -337.509     206.075
  O     -195.878    -338.545     205.107
  C     -195.199    -336.241     205.460
  O     -193.794    -336.497     205.166
  C     -195.862    -335.815     204.134
  O     -195.726    -334.386     204.016
  C     -194.966    -336.495     203.112
  O     -195.186    -335.973     201.819
  C     -193.602    -336.238     203.756
  N     -189.254    -336.272     201.065
  C     -190.045    -335.265     201.480
  N     -191.182    -335.329     202.204
  C     -191.473    -336.603     202.517
  C     -190.755    -337.740     202.174
  C     -189.594    -337.541     201.406
  N     -188.787    -338.574     200.975
  N     -191.363    -338.874     202.683
  C     -192.428    -338.431     203.318
  N     -192.539    -337.067     203.243
  O     -194.487    -340.305     206.264
  O     -197.036    -340.389     206.552
  H     -196.032    -336.306     201.448
  H     -194.541    -341.011     206.938
  H     -189.725    -334.259     201.186
  H     -193.156    -339.046     203.842
  H     -193.289    -335.193     203.647
  H     -195.175    -337.567     203.060
  H     -196.916    -336.084     204.069
  H     -195.228    -335.435     206.202
  H     -195.189    -337.854     206.909
  H     -196.817    -337.285     206.443
  H     -187.981    -338.347     200.411
  H     -189.038    -339.522     201.204
  P     -196.855    -333.438     204.660
  C     -199.316    -332.743     204.080
  O     -198.191    -333.556     203.776
  O     -196.330    -331.971     204.264
  O     -197.039    -333.553     206.139
  H     -196.642    -331.325     204.928
  H     -200.107    -332.957     203.392
  H     -199.043    -331.712     204.000
  H     -199.646    -332.949     205.077

 6  7  8  9  10  11  12  13  14  15  25  28  32  33  34  35 0
 6-311+G(2d,p)
 ****
 36  37  40 0
 6-311+G(2d,p)
 ****
 1  2  3  4  5  16  17  18  19  20  21  22  23  24 0
 3-21G
 ****
 26  27  29  30  31  38  39 41  42  43  44  45  46  47  48 0
 3-21G
 ****


