%nproc=1
%NoSave
%Mem=1900MB
#P OB98/GEN NMR

erre ene a

0 1
  C      394.045    -403.339      67.065
  O      394.726    -403.398      65.803
  P      396.205    -402.781      65.716
  C      395.734    -401.714      63.388
  O      396.573    -402.551      64.171
  C      396.151    -401.772      61.913
  O      395.678    -402.970      61.266
  C      395.602    -400.621      61.077
  O      396.391    -399.453      61.219
  C      395.738    -401.184      59.675
  O      397.100    -401.047      59.225
  C      395.397    -402.665      59.880
  N      392.156    -404.627      56.429
  C      393.488    -404.409      56.391
  N      394.281    -403.860      57.344
  C      393.560    -403.545      58.436
  C      392.196    -403.710      58.614
  C      391.483    -404.278      57.549
  N      390.120    -404.501      57.595
  N      391.809    -403.262      59.863
  C      392.924    -402.842      60.430
  N      394.010    -402.991      59.598
  O      397.137    -404.010      66.138
  O      396.421    -401.601      66.606
  H      397.191    -401.591      58.414
  H      397.911    -403.686      66.626
  H      393.989    -404.707      55.475
  H      393.006    -402.435      61.424
  H      396.017    -403.328      59.268
  H      395.112    -400.663      58.947
  H      394.541    -400.442      61.307
  H      397.247    -401.766      61.870
  H      395.782    -400.688      63.748
  H      389.682    -404.938      56.800
  H      389.617    -404.263      58.437
  H      394.694    -402.038      63.515
  P      395.634    -398.100      61.641
  C      396.578    -396.324      59.992
  O      396.637    -396.907      61.280
  O      395.654    -398.155      63.237
  O      394.247    -397.978      61.098
  H      394.873    -397.698      63.595
  H      397.097    -395.359      60.013
  H      395.535    -396.158      59.683
  H      397.077    -396.975      59.260
  H      393.077    -403.786      66.969
  H      393.938    -402.318      67.365
  H      394.612    -403.870      67.801

 3  4  5  6  7  8  9  10  11  12  22  25  29  30  31  32 0
 6-311+G(2d,p)
 ****
 33  36  37 0
 6-311+G(2d,p)
 ****
 1  2  13  14  15  16  17  18  19  20  21  23  24  26 0
 3-21G
 ****
 27  28  34  35  38  39  40  41  42  43  44  45  46  47  48 0
 3-21G
 ****


