%nproc=1
%NoSave
%Mem=1900MB
#P OB98/GEN NMR

erre ene a

0 1
  C       92.227    -166.122      94.503
  O       92.271    -164.837      93.921
  H       91.742    -166.048      95.480
  H       93.242    -166.498      94.650
  H       91.658    -166.818      93.883
  P       92.675    -164.697      92.376
  C       91.399    -162.710      91.335
  O       92.563    -163.135      92.030
  C       90.248    -162.492      92.320
  O       90.621    -161.409      93.226
  C       88.923    -162.096      91.638
  O       87.840    -162.653      92.390
  C       88.944    -160.589      91.792
  O       87.663    -160.028      91.655
  C       89.556    -160.445      93.183
  N       90.024    -159.083      93.423
  C       89.051    -158.111      93.628
  O       87.844    -158.340      93.607
  N       89.508    -156.832      93.790
  C       90.803    -156.424      93.657
  O       91.145    -155.253      93.732
  C       91.783    -157.489      93.386
  C       91.357    -158.750      93.290
  O       91.957    -165.598      91.428
  O       94.259    -164.931      92.359
  H       87.370    -160.088      90.726
  H       94.553    -165.193      91.466
  H       88.816    -156.117      93.950
  H       92.816    -157.197      93.258
  H       92.047    -159.557      93.072
  H       88.830    -160.717      93.961
  H       89.589    -160.141      91.030
  H       88.862    -162.420      90.596
  H       90.124    -163.393      92.932
  H       91.129    -163.488      90.612
  H       91.614    -161.781      90.796
  P       87.230    -164.099      92.053
  C       86.369    -164.527      94.434
  O       86.022    -164.449      93.055
  O       88.253    -165.182      91.937
  O       86.492    -163.895      90.645
  H       86.723    -164.637      90.053
  H       85.498    -164.764      95.008
  H       86.764    -163.586      94.756
  H       87.106    -165.290      94.574

 6  7  8  9  10  11  12  13  14  15  16  26  31  32  33  34  35 0
 6-311+G(2d,p)
 ****
 36  37 0
 6-311+G(2d,p)
 ****
 1  2  3  4  5  17  18  19  20  21  22  23  24  25 0
 3-21G
 ****
 27  28  29  30  38  39  40  41  42  43  44  45 0
 3-21G
 ****


