%nproc=1
%NoSave
%Mem=1900MB
#P OB98/GEN NMR

erre ene a

0 1
  C     -325.950    -185.202    -328.263
  O     -325.137    -186.323    -328.528
  P     -323.549    -186.269    -328.312
  C     -323.830    -187.333    -325.980
  O     -323.301    -186.237    -326.722
  C     -322.844    -187.760    -324.885
  O     -323.488    -188.757    -324.033
  C     -321.550    -188.386    -325.456
  O     -320.341    -187.798    -324.970
  C     -321.734    -189.863    -325.146
  O     -320.524    -190.597    -325.132
  C     -322.522    -189.813    -323.837
  N     -323.155    -191.085    -323.507
  C     -322.394    -192.006    -322.788
  O     -321.249    -191.806    -322.404
  N     -322.983    -193.218    -322.562
  C     -324.176    -193.643    -323.071
  O     -324.594    -194.781    -322.908
  C     -324.914    -192.640    -323.857
  C     -324.398    -191.425    -324.019
  O     -322.835    -185.200    -329.065
  O     -323.081    -187.756    -328.689
  H     -320.740    -191.526    -324.915
  H     -323.479    -188.458    -328.147
  H     -322.444    -193.899    -322.040
  H     -325.859    -192.951    -324.281
  H     -324.917    -190.666    -324.598
  H     -321.889    -189.519    -322.992
  H     -322.360    -190.294    -325.934
  H     -321.495    -188.248    -326.542
  H     -322.618    -186.880    -324.274
  H     -324.001    -188.172    -326.656
  H     -324.798    -187.054    -325.546
  P     -318.902    -187.981    -325.634
  C     -319.400    -186.030    -327.288
  O     -318.949    -187.360    -327.114
  O     -318.329    -189.355    -325.548
  O     -317.985    -186.937    -324.829
  H     -317.066    -187.257    -324.810
  H     -319.847    -185.942    -328.279
  H     -318.553    -185.350    -327.214
  H     -320.156    -185.757    -326.540
  H     -326.971    -185.445    -328.470
  H     -325.645    -184.385    -328.884
  H     -325.851    -184.925    -327.234

 3  4  5  6  7  8  9  10  11  12  13  23  28  29  30  31  32 0
 6-311+G(2d,p)
 ****
 33  34 0
 6-311+G(2d,p)
 ****
 1  2  14  15  16  17  18  19  20  21  22  24  25  26  27 0
 3-21G
 ****
 35  36  37  38  39  40  41  42  43  44  45 0
 3-21G
 ****


