%nproc=1
%NoSave
%Mem=1900MB
#P OB98/GEN NMR

erre ene a

0 1
  C      472.389     496.134    -467.793
  O      471.023     495.820    -467.595
  H      472.863     495.305    -468.322
  H      472.888     496.265    -466.828
  H      472.497     497.045    -468.395
  P      470.054     496.933    -466.959
  C      470.448     496.810    -464.409
  O      470.764     497.475    -465.623
  C      470.669     497.729    -463.203
  O      469.803     498.888    -463.326
  C      470.382     497.069    -461.850
  O      471.321     497.534    -460.877
  C      468.995     497.576    -461.499
  O      468.760     497.585    -460.091
  C      468.997     498.974    -462.127
  N      464.437     499.953    -460.178
  C      465.618     499.576    -459.547
  N      465.571     499.430    -458.214
  N      466.740     499.370    -460.186
  C      466.642     499.576    -461.528
  C      465.548     499.943    -462.265
  C      464.303     500.154    -461.549
  O      463.228     500.460    -462.055
  N      465.843     500.034    -463.603
  C      467.131     499.722    -463.674
  N      467.658     499.427    -462.441
  O      468.635     496.500    -466.784
  O      470.168     498.175    -467.968
  H      467.797     497.688    -459.964
  H      469.372     498.248    -468.518
  H      463.599     500.086    -459.641
  H      467.717     499.698    -464.584
  H      469.452     499.732    -461.470
  H      468.230     496.936    -461.972
  H      464.739     499.599    -457.647
  H      470.417     495.981    -461.909
  H      466.416     499.195    -457.727
  H      471.701     498.107    -463.245
  H      471.093     495.923    -464.325
  H      469.402     496.474    -464.435
  P      472.457     496.532    -460.351
  C      471.121     494.921    -458.861
  O      471.794     495.085    -460.106
  O      473.303     497.036    -459.225
  O      473.356     496.275    -461.669
  H      474.286     496.170    -461.403
  H      470.720     493.931    -458.800
  H      470.326     495.633    -458.789
  H      471.812     495.076    -458.059

 6  7  8  9  10  11  12  13  14  15  26  29  33  34 0
 6-311+G(2d,p)
 ****
 36  38  39  40  41 0
 6-311+G(2d,p)
 ****
 1  2  3  4  5  16  17  18  19  20  21  22  23  24  25 0
 3-21G
 ****
 27  28  30  31  32  35  37  42  43  44  45  46  47 0
 3-21G
 ****
 48  49 0
 3-21G
 ****


