%nproc=1
%NoSave
%Mem=1900MB
#P OB98/GEN NMR

erre ene a

0 1
  C      339.824      26.196      30.058
  O      338.979      26.569      28.985
  H      340.665      25.599      29.688
  H      340.218      27.099      30.534
  H      339.258      25.620      30.800
  P      338.330      25.380      28.129
  C      336.667      27.189      27.252
  O      337.538      26.104      26.934
  C      336.186      27.842      25.964
  O      337.282      28.512      25.305
  C      335.621      26.854      24.941
  O      334.274      26.500      25.202
  C      335.739      27.671      23.662
  O      334.687      28.648      23.609
  C      337.101      28.364      23.866
  N      339.578      27.021      19.587
  C      338.519      27.836      19.799
  N      337.931      28.157      20.974
  C      338.561      27.555      21.995
  C      339.646      26.698      21.929
  C      340.163      26.434      20.653
  N      341.222      25.570      20.426
  N      339.992      26.257      23.195
  C      339.135      26.839      24.006
  N      338.223      27.612      23.326
  O      337.142      24.838      29.063
  O      339.262      24.304      27.686
  H      334.721      29.057      22.723
  H      336.823      23.970      28.741
  H      338.082      28.292      18.909
  H      339.115      26.733      25.085
  H      337.136      29.364      23.427
  H      335.664      27.057      22.762
  H      336.257      25.965      24.855
  H      335.434      28.604      26.219
  H      337.212      27.920      27.860
  H      341.423      25.327      19.469
  H      341.568      25.019      21.200
  H      335.813      26.804      27.827
  P      333.770      25.058      24.713
  C      333.652      24.021      27.087
  O      332.940      24.419      25.922
  O      335.121      24.193      24.689
  O      333.083      25.062      23.379
  H      335.095      23.522      23.978
  H      332.967      23.615      27.802
  H      334.148      24.870      27.510
  H      334.377      23.278      26.826

 6  7  8  9  10  11  12  13  14  15  25  28  32  33  34  35 0
 6-311+G(2d,p)
 ****
 36  39  40 0
 6-311+G(2d,p)
 ****
 1  2  3  4  5  16  17  18  19  20  21  22  23  24 0
 3-21G
 ****
 26  27  29  30  31  37  38  41  42  43  44  45  46  47 0
 3-21G
 ****
 48 0
 3-21G
 ****


