%nproc=1
%NoSave
%Mem=1900MB
#P OB98/GEN NMR

erre ene a

0 1
  C      140.901     -68.894     -43.782
  O      141.528     -68.174     -42.738
  P      141.134     -68.437     -41.211
  C      139.872     -66.219     -41.430
  O      139.850     -67.530     -40.879
  C      139.258     -65.201     -40.468
  O      137.866     -65.551     -40.235
  C      139.945     -65.120     -39.097
  O      139.857     -63.755     -38.673
  C      139.050     -65.983     -38.222
  O      139.192     -65.700     -36.836
  C      137.685     -65.636     -38.805
  N      133.141     -66.468     -36.614
  C      133.904     -65.358     -36.708
  N      135.115     -65.224     -37.285
  C      135.526     -66.392     -37.805
  C      134.872     -67.612     -37.761
  C      133.609     -67.625     -37.142
  N      132.802     -68.739     -37.069
  N      135.644     -68.594     -38.356
  C      136.738     -67.975     -38.750
  N      136.682     -66.631     -38.497
  O      142.254     -68.311     -40.232
  O      140.536     -69.923     -41.216
  H      138.750     -66.407     -36.330
  H      141.178     -70.539     -40.813
  H      133.484     -64.458     -36.266
  H      137.593     -68.444     -39.216
  H      137.318     -64.665     -38.450
  H      139.294     -67.040     -38.378
  H      140.984     -65.458     -39.099
  H      139.265     -64.220     -40.960
  H      139.291     -66.233     -42.358
  H      131.865     -68.605     -36.726
  H      133.002     -69.531     -37.677
  H      140.902     -65.935     -41.672
  P      141.155     -63.014     -38.092
  C      140.764     -64.272     -35.897
  O      141.705     -63.927     -36.898
  O      140.974     -61.570     -37.763
  O      142.252     -63.224     -39.244
  H      142.979     -62.586     -39.122
  H      140.656     -63.438     -35.199
  H      141.128     -65.146     -35.352
  H      139.791     -64.505     -36.335
  H      141.299     -68.576     -44.723
  H      139.847     -68.710     -43.760
  H      141.083     -69.940     -43.653

 3  4  5  6  7  8  9  10  11  12  22  25  29  30  31  32 0
 6-311+G(2d,p)
 ****
 33  36  37 0
 6-311+G(2d,p)
 ****
 1  2  13  14  15  16  17  18  19  20  21  23  24  26 0
 3-21G
 ****
 27  28  34  35  38  39  40  41  42  43  44  45  46  47  48 0
 3-21G
 ****


