%nproc=1
%NoSave
%Mem=1900MB
#P OB98/GEN NMR

erre ene a

0 1
  C     -124.630    -357.654     421.621
  O     -125.954    -357.718     422.106
  H     -124.618    -357.983     420.578
  H     -123.996    -358.327     422.205
  H     -124.241    -356.635     421.676
  P     -126.279    -356.922     423.461
  C     -128.373    -355.626     422.643
  O     -127.010    -355.558     423.030
  C     -128.556    -355.075     421.228
  O     -127.789    -355.901     420.303
  C     -130.012    -355.057     420.741
  O     -130.222    -353.890     419.938
  C     -130.078    -356.273     419.835
  O     -131.128    -356.180     418.880
  C     -128.680    -356.249     419.228
  N     -129.135    -358.925     415.005
  C     -129.404    -357.595     415.259
  N     -129.940    -356.874     414.248
  N     -129.177    -357.015     416.412
  C     -128.625    -357.850     417.330
  C     -128.314    -359.181     417.204
  C     -128.586    -359.814     415.930
  O     -128.392    -360.991     415.653
  N     -127.830    -359.685     418.386
  C     -127.865    -358.663     419.227
  N     -128.343    -357.529     418.629
  O     -124.829    -356.441     423.939
  O     -126.976    -357.716     424.515
  H     -131.137    -355.270     418.519
  H     -124.462    -357.080     424.579
  H     -129.343    -359.325     414.110
  H     -127.580    -358.694     420.266
  H     -128.580    -355.489     418.442
  H     -130.232    -357.180     420.434
  H     -130.112    -357.239     413.327
  H     -130.754    -355.086     421.550
  H     -130.103    -355.888     414.407
  H     -128.122    -354.064     421.188
  H     -128.973    -355.030     423.337
  H     -128.711    -356.667     422.691
  P     -130.662    -352.536     420.677
  C     -128.516    -351.212     420.027
  O     -129.343    -351.715     421.070
  O     -131.201    -353.057     422.094
  O     -131.706    -351.758     419.946
  H     -131.940    -352.495     422.394
  H     -127.683    -350.692     420.452
  H     -129.082    -350.540     419.416
  H     -128.161    -352.026     419.429

 6  7  8  9  10  11  12  13  14  15  26  29  33  34 0
 6-311+G(2d,p)
 ****
 36  38  39  40  41 0
 6-311+G(2d,p)
 ****
 1  2  3  4  5  16  17  18  19  20  21  22  23  24  25 0
 3-21G
 ****
 27  28  30  31  32  35  37  42  43  44  45  46  47 0
 3-21G
 ****
 48  49 0
 3-21G
 ****


