%nproc=1
%NoSave
%Mem=1900MB
#P OB98/GEN NMR

erre ene a

0 1
  C      749.760    -222.737    -320.978
  O      749.631    -221.369    -320.652
  P      748.795    -220.449    -321.668
  C      747.391    -218.943    -320.066
  O      748.550    -219.059    -320.910
  C      747.439    -217.636    -319.281
  O      748.251    -217.801    -318.099
  C      748.053    -216.476    -320.047
  O      747.139    -215.949    -320.970
  C      748.396    -215.517    -318.901
  O      747.269    -214.686    -318.566
  C      748.745    -216.485    -317.749
  N      750.168    -216.522    -317.443
  C      750.549    -215.818    -316.279
  O      749.702    -215.211    -315.617
  N      751.874    -215.797    -315.956
  C      752.748    -216.396    -316.691
  N      754.058    -216.358    -316.306
  C      752.387    -217.148    -317.922
  C      751.083    -217.147    -318.235
  O      747.350    -221.135    -321.680
  O      749.383    -220.342    -323.048
  H      747.090    -214.155    -319.381
  H      746.884    -220.961    -322.525
  H      753.139    -217.626    -318.507
  H      750.728    -217.663    -319.116
  H      748.211    -216.197    -316.840
  H      749.223    -214.851    -319.168
  H      748.965    -216.800    -320.556
  H      746.411    -217.387    -318.966
  H      754.278    -215.841    -315.463
  H      747.387    -219.787    -319.360
  H      754.805    -216.820    -316.804
  H      746.494    -218.995    -320.692
  P      747.695    -214.979    -322.119
  C      746.045    -215.551    -324.002
  O      746.427    -214.605    -323.007
  O      748.484    -216.014    -323.073
  O      748.568    -213.858    -321.669
  H      748.967    -215.519    -323.757
  H      745.091    -215.236    -324.440
  H      745.948    -216.543    -323.573
  H      746.810    -215.550    -324.815
  H      750.336    -223.231    -320.223
  H      750.253    -222.834    -321.923
  H      748.789    -223.183    -321.035

 3  4  5  6  7  8  9  10  11  12  13  21  23  27  28  29  30  32 0
 6-311+G(2d,p)
 ****
 34  35 0
 6-311+G(2d,p)
 ****
 1  2  14  15  16  17  18  19  20  22  24  25  26 0
 3-21G
 ****
 31  33  36  37  38  39  40  41  42  43  44  45  46 0
 3-21G
 ****


