%nproc=1
%NoSave
%Mem=1900MB
#P OB98/GEN NMR

erre ene a

0 1
  C     -372.794    -136.447     154.397
  O     -372.432    -136.977     153.136
  H     -373.803    -136.785     154.644
  H     -372.784    -135.355     154.365
  H     -372.104    -136.805     155.170
  P     -370.982    -136.575     152.581
  C     -369.977    -138.785     153.502
  O     -369.921    -137.365     153.491
  C     -368.734    -139.370     152.838
  O     -367.543    -138.990     153.562
  C     -368.727    -140.892     152.756
  O     -369.469    -141.348     151.637
  C     -367.237    -141.173     152.624
  O     -366.782    -140.989     151.267
  C     -366.625    -140.117     153.553
  N     -363.102    -141.039     157.052
  C     -362.982    -140.507     155.784
  N     -361.728    -140.228     155.367
  N     -363.996    -140.280     154.990
  C     -365.182    -140.638     155.531
  C     -365.436    -141.159     156.781
  C     -364.306    -141.377     157.654
  O     -364.351    -141.785     158.814
  N     -366.775    -141.374     156.965
  C     -367.330    -141.022     155.820
  N     -366.403    -140.585     154.913
  O     -370.809    -135.054     153.052
  O     -370.799    -136.719     151.107
  H     -367.058    -141.746     150.728
  H     -370.254    -134.581     152.404
  H     -362.285    -141.175     157.620
  H     -368.389    -141.070     155.604
  H     -365.662    -139.748     153.183
  H     -366.994    -142.202     152.895
  H     -360.922    -140.682     155.774
  H     -369.098    -141.336     153.686
  H     -361.629    -139.860     154.429
  H     -368.660    -138.933     151.834
  H     -370.867    -139.108     152.947
  H     -370.057    -139.134     154.533
  P     -369.780    -142.923     151.542
  C     -371.841    -142.657     153.108
  O     -370.597    -143.307     152.868
  O     -368.348    -143.598     151.784
  O     -370.395    -143.359     150.254
  H     -368.361    -144.527     151.482
  H     -372.261    -143.017     154.024
  H     -372.513    -142.864     152.302
  H     -371.684    -141.601     153.179

 6  7  8  9  10  11  12  13  14  15  26  29  33  34 0
 6-311+G(2d,p)
 ****
 36  38  39  40  41 0
 6-311+G(2d,p)
 ****
 1  2  3  4  5  16  17  18  19  20  21  22  23  24  25 0
 3-21G
 ****
 27  28  30  31  32  35  37  42  43  44  45  46  47 0
 3-21G
 ****
 48  49 0
 3-21G
 ****


