%nproc=1
%NoSave
%Mem=1900MB
#P OB98/GEN NMR

erre ene a

0 1
  C      161.077    -125.627    -363.097
  O      160.688    -125.146    -361.803
  P      161.725    -124.215    -361.000
  C      160.613    -121.914    -361.469
  O      160.958    -122.898    -360.507
  C      160.583    -120.523    -360.828
  O      160.590    -119.474    -361.815
  C      159.339    -120.268    -359.984
  O      159.469    -120.827    -358.679
  C      159.340    -118.751    -359.907
  O      160.282    -118.308    -358.908
  C      159.830    -118.355    -361.302
  N      155.761    -115.377    -362.204
  C      156.605    -115.451    -361.153
  N      157.656    -116.279    -360.978
  C      157.804    -117.087    -362.039
  C      157.013    -117.131    -363.181
  C      155.947    -116.218    -363.244
  N      155.088    -116.147    -364.316
  N      157.465    -118.100    -364.057
  C      158.516    -118.626    -363.458
  N      158.756    -118.053    -362.236
  O      162.688    -123.674    -362.157
  O      162.495    -124.942    -359.948
  H      160.176    -117.343    -358.819
  H      163.595    -123.574    -361.815
  H      156.419    -114.750    -360.347
  H      159.133    -119.411    -363.869
  H      160.498    -117.481    -361.288
  H      158.364    -118.340    -359.623
  H      158.436    -120.620    -360.496
  H      161.478    -120.417    -360.200
  H      159.639    -122.144    -361.915
  H      154.363    -115.451    -364.303
  H      155.237    -116.760    -365.109
  H      161.341    -121.945    -362.291
  P      158.214    -121.646    -358.105
  C      158.249    -123.825    -359.517
  O      158.582    -123.191    -358.294
  O      157.075    -121.374    -359.201
  O      157.787    -121.230    -356.737
  H      156.195    -121.388    -358.779
  H      158.826    -124.751    -359.593
  H      158.499    -123.187    -360.372
  H      157.185    -124.069    -359.529
  H      160.291    -126.228    -363.505
  H      161.966    -126.216    -363.006
  H      161.264    -124.796    -363.745

 3  4  5  6  7  8  9  10  11  12  22  25  29  30  31  32 0
 6-311+G(2d,p)
 ****
 33  36  37 0
 6-311+G(2d,p)
 ****
 1  2  13  14  15  16  17  18  19  20  21  23  24  26 0
 3-21G
 ****
 27  28  34  35  38  39  40  41  42  43  44  45  46  47  48 0
 3-21G
 ****


