%nproc=1
%NoSave
%Mem=1900MB
#P OB98/GEN NMR

erre ene a

0 1
  C       94.287     637.724     146.462
  O       94.789     637.007     145.353
  P       94.177     635.548     145.075
  C       92.087     636.396     143.767
  O       93.303     635.655     143.736
  C       91.603     636.666     142.345
  O       92.384     637.715     141.745
  C       91.718     635.480     141.398
  O       90.700     634.523     141.649
  C       91.615     636.184     140.052
  O       90.241     636.488     139.759
  C       92.402     637.481     140.305
  N       95.649     638.641     136.522
  C       94.323     638.825     136.660
  N       93.522     638.469     137.688
  C       94.234     637.865     138.648
  C       95.589     637.590     138.646
  C       96.315     638.005     137.521
  N       97.672     637.810     137.386
  N       95.963     636.938     139.807
  C       94.848     636.837     140.504
  N       93.781     637.398     139.855
  O       93.076     635.395     146.225
  O       95.174     634.432     145.102
  H       89.976     637.224     140.348
  H       93.010     634.465     146.522
  H       93.830     639.324     135.825
  H       94.767     636.369     141.475
  H       91.946     638.349     139.822
  H       92.000     635.583     139.223
  H       92.701     635.002     141.499
  H       90.556     637.005     142.401
  H       92.264     637.355     144.270
  H       98.086     638.004     136.485
  H       98.137     637.215     138.066
  H       91.341     635.837     144.337
  P       90.860     633.077     140.969
  C       92.445     632.145     142.766
  O       91.143     632.095     142.211
  O       92.306     633.204     140.286
  O       89.748     632.680     140.067
  H       92.967     633.552     140.899
  H       92.485     631.478     143.622
  H       92.678     633.161     143.087
  H       93.181     631.810     142.022
  H       94.780     638.671     146.527
  H       94.466     637.167     147.358
  H       93.235     637.877     146.341

 3  4  5  6  7  8  9  10  11  12  22  25  29  30  31  32 0
 6-311+G(2d,p)
 ****
 33  36  37 0
 6-311+G(2d,p)
 ****
 1  2  13  14  15  16  17  18  19  20  21  23  24  26 0
 3-21G
 ****
 27  28  34  35  38  39  40  41  42  43  44  45  46  47  48 0
 3-21G
 ****


