%nproc=1
%NoSave
%Mem=1900MB
#P OB98/GEN NMR

erre ene a

0 1
  C     -634.955    -458.518     550.161
  O     -634.113    -457.422     549.868
  H     -634.515    -459.085     550.986
  H     -635.037    -459.173     549.284
  H     -635.955    -458.183     550.458
  P     -634.678    -456.253     548.926
  C     -632.456    -455.018     549.421
  O     -633.404    -455.405     548.431
  C     -631.040    -454.951     548.824
  O     -630.601    -456.305     548.510
  C     -631.033    -454.162     547.501
  O     -629.770    -453.545     547.251
  C     -631.265    -455.256     546.458
  O     -630.789    -454.891     545.160
  C     -630.516    -456.430     547.082
  N     -631.642    -459.541     543.198
  C     -631.303    -458.213     543.165
  N     -631.250    -457.624     541.939
  N     -631.055    -457.496     544.245
  C     -631.214    -458.201     545.401
  C     -631.563    -459.516     545.555
  C     -631.800    -460.304     544.356
  O     -632.127    -461.485     544.329
  N     -631.623    -459.861     546.883
  C     -631.326    -458.765     547.538
  N     -631.038    -457.725     546.671
  O     -635.389    -455.247     549.952
  O     -635.615    -456.685     547.843
  H     -631.421    -454.245     544.785
  H     -636.038    -454.702     549.487
  H     -631.788    -460.050     542.341
  H     -631.278    -458.659     548.606
  H     -629.459    -456.405     546.806
  H     -632.341    -455.419     546.383
  H     -631.629    -458.077     541.128
  H     -631.810    -453.408     547.456
  H     -631.321    -456.607     541.933
  H     -630.345    -454.545     549.551
  H     -632.502    -455.767     550.215
  H     -632.732    -454.060     549.851
  P     -629.697    -451.948     547.213
  C     -627.040    -452.190     547.266
  O     -628.201    -451.482     546.848
  O     -629.865    -451.522     548.736
  O     -630.722    -451.317     546.331
  H     -630.691    -451.029     548.868
  H     -626.167    -451.689     546.903
  H     -627.069    -453.185     546.874
  H     -627.011    -452.228     548.335

 6  7  8  9  10  11  12  13  14  15  26  29  33  34 0
 6-311+G(2d,p)
 ****
 36  38  39  40  41 0
 6-311+G(2d,p)
 ****
 1  2  3  4  5  16  17  18  19  20  21  22  23  24  25 0
 3-21G
 ****
 27  28  30  31  32  35  37  42  43  44  45  46  47 0
 3-21G
 ****
 48  49 0
 3-21G
 ****


