%nproc=1
%NoSave
%Mem=1900MB
#P OB98/GEN NMR

erre ene a

0 1
  C      322.595     124.600     564.234
  O      323.153     125.429     565.245
  P      322.485     126.885     565.445
  C      323.606     127.996     563.367
  O      323.492     127.932     564.778
  C      324.582     129.110     562.973
  O      324.079     130.392     563.411
  C      325.973     128.962     563.592
  O      326.753     128.050     562.844
  C      326.478     130.399     563.534
  O      326.977     130.719     562.217
  C      325.206     131.200     563.851
  N      326.803     134.254     567.553
  C      327.307     134.060     566.280
  N      328.357     134.837     565.927
  N      326.817     133.203     565.423
  C      325.779     132.488     565.914
  C      325.201     132.574     567.175
  C      325.715     133.567     568.081
  O      325.246     133.838     569.182
  N      324.174     131.672     567.314
  C      324.116     131.066     566.140
  N      325.053     131.542     565.255
  O      322.639     127.133     567.017
  O      321.066     126.995     564.978
  H      327.083     131.687     562.141
  H      321.804     126.932     567.485
  H      327.214     134.941     568.155
  H      323.403     130.303     565.881
  H      325.161     132.143     563.288
  H      327.308     130.575     564.234
  H      328.801     135.500     566.540
  H      325.899     128.640     564.638
  H      328.739     134.714     564.994
  H      324.648     129.129     561.882
  H      322.623     128.212     562.935
  H      323.955     127.026     562.988
  P      327.716     127.054     563.652
  C      329.673     128.737     563.378
  O      329.218     127.404     563.239
  O      327.446     125.637     562.963
  O      327.457     127.002     565.118
  H      327.490     124.926     563.636
  H      330.753     128.724     563.572
  H      329.173     129.257     564.208
  H      329.490     129.286     562.443
  H      323.123     123.670     564.203
  H      322.678     125.089     563.286
  H      321.563     124.417     564.452

 3  4  5  6  7  8  9  10  11  12  23  26  30  31 0
 6-311+G(2d,p)
 ****
 33  35  36  37  38 0
 6-311+G(2d,p)
 ****
 1  2  13  14  15  16  17  18  19  20  21  22  24  25 0
 3-21G
 ****
 27  28  29  32  34  39  40  41  42  43  44  45  46  47  48  49 0
 3-21G
 ****


