%nproc=1
%NoSave
%Mem=1900MB
#P OB98/GEN NMR

erre ene a

0 1
  C      237.316    -213.723     240.834
  O      236.290    -213.477     241.775
  H      237.854    -214.626     241.128
  H      238.017    -212.885     240.821
  H      236.896    -213.872     239.834
  P      235.223    -212.335     241.419
  C      236.839    -210.604     242.495
  O      236.036    -210.950     241.377
  C      237.525    -209.259     242.254
  O      236.627    -208.418     241.470
  C      237.865    -208.493     243.539
  O      239.104    -207.802     243.332
  C      236.744    -207.479     243.645
  O      237.069    -206.334     244.419
  C      236.499    -207.161     242.164
  N      235.190    -206.556     241.927
  C      235.145    -205.177     241.756
  O      236.127    -204.441     241.708
  N      233.886    -204.640     241.639
  C      232.709    -205.326     241.697
  O      231.611    -204.782     241.606
  C      232.823    -206.779     241.886
  C      234.039    -207.317     241.993
  O      234.361    -212.218     242.762
  O      234.378    -212.596     240.217
  H      233.604    -212.832     242.734
  H      237.951    -206.022     244.126
  H      233.834    -203.641     241.515
  H      231.908    -207.354     241.950
  H      234.157    -208.385     242.157
  H      237.287    -206.498     241.786
  H      235.858    -207.949     244.091
  H      237.937    -209.125     244.430
  H      238.418    -209.425     241.645
  H      237.604    -211.373     242.642
  H      236.210    -210.559     243.391
  P      240.373    -208.289     244.190
  C      239.841    -206.353     245.874
  O      240.132    -207.730     245.672
  O      241.523    -207.358     243.592
  O      240.620    -209.757     244.078
  H      241.209    -206.468     243.355
  H      239.712    -206.165     246.919
  H      238.942    -206.098     245.352
  H      240.650    -205.759     245.502

 6  7  8  9  10  11  12  13  14  15  16  27  31  32  33  34  35 0
 6-311+G(2d,p)
 ****
 36  37 0
 6-311+G(2d,p)
 ****
 1  2  3  4  5  17  18  19  20  21  22  23  24  25 0
 3-21G
 ****
 26  28  29  30  38  39  40  41  42  43  44  45 0
 3-21G
 ****


