%nproc=1
%NoSave
%Mem=1900MB
#P OB98/GEN NMR

erre ene a

0 1
  C      204.228    -509.222    -639.591
  O      203.041    -508.485    -639.808
  H      204.712    -508.894    -638.669
  H      203.968    -510.281    -639.496
  H      204.910    -509.101    -640.436
  P      203.199    -506.897    -639.988
  C      202.621    -506.627    -637.466
  O      203.523    -506.325    -638.525
  C      203.389    -506.782    -636.161
  O      204.519    -507.664    -636.349
  C      203.979    -505.476    -635.618
  O      203.014    -504.715    -634.918
  C      205.044    -506.019    -634.680
  O      204.423    -506.493    -633.466
  C      205.596    -507.202    -635.481
  N      210.598    -506.107    -635.440
  C      209.731    -506.397    -634.446
  N      208.408    -506.672    -634.545
  C      208.013    -506.629    -635.823
  C      208.774    -506.345    -636.937
  C      210.141    -506.079    -636.711
  N      211.028    -505.772    -637.721
  N      208.004    -506.361    -638.088
  C      206.801    -506.690    -637.667
  N      206.743    -506.853    -636.304
  O      201.703    -506.394    -640.256
  O      204.146    -506.457    -641.057
  H      205.132    -506.880    -632.920
  H      201.713    -505.524    -640.688
  H      210.147    -506.400    -633.446
  H      205.933    -506.818    -638.307
  H      205.893    -508.044    -634.852
  H      205.778    -505.274    -634.396
  H      204.459    -504.888    -636.416
  H      202.722    -507.250    -635.420
  H      202.102    -507.566    -637.696
  H      211.927    -505.425    -637.436
  H      210.663    -505.601    -638.652
  H      201.882    -505.820    -637.381
  P      202.660    -503.256    -635.500
  C      202.419    -502.504    -633.017
  O      202.958    -502.230    -634.312
  O      201.059    -503.278    -635.587
  O      203.294    -502.941    -636.813
  H      200.736    -502.661    -636.276
  H      202.707    -501.728    -632.339
  H      202.795    -503.442    -632.666
  H      201.352    -502.547    -633.077

 6  7  8  9  10  11  12  13  14  15  25  28  32  33  34  35 0
 6-311+G(2d,p)
 ****
 36  39  40 0
 6-311+G(2d,p)
 ****
 1  2  3  4  5  16  17  18  19  20  21  22  23  24 0
 3-21G
 ****
 26  27  29  30  31  37  38  41  42  43  44  45  46  47 0
 3-21G
 ****
 48 0
 3-21G
 ****


