%nproc=1
%NoSave
%Mem=1900MB
#P OB98/GEN NMR

erre ene a

0 1
  C     -339.268      73.683     171.458
  O     -339.934      72.548     170.937
  H     -339.562      73.847     172.497
  H     -338.190      73.506     171.418
  H     -339.504      74.568     170.858
  P     -341.536      72.618     170.882
  C     -341.354      71.886     168.399
  O     -341.982      71.684     169.655
  C     -341.546      70.663     167.511
  O     -340.723      69.575     167.977
  C     -342.967      70.112     167.482
  O     -343.805      70.860     166.608
  C     -342.719      68.709     166.950
  O     -342.536      68.754     165.522
  C     -341.397      68.335     167.636
  N     -342.481      63.691     169.501
  C     -342.293      64.139     168.237
  N     -341.988      65.385     167.822
  C     -341.853      66.213     168.870
  C     -341.987      65.901     170.214
  C     -342.322      64.570     170.522
  N     -342.574      64.144     171.819
  N     -341.786      67.025     171.001
  C     -341.561      67.995     170.141
  N     -341.581      67.557     168.845
  O     -341.807      74.107     170.348
  O     -342.229      72.361     172.180
  H     -343.404      68.969     165.132
  H     -341.992      74.692     171.107
  H     -342.414      63.396     167.455
  H     -341.375      69.030     170.412
  H     -340.728      67.773     166.975
  H     -343.545      68.020     167.149
  H     -343.395      70.044     168.492
  H     -341.208      70.921     166.496
  H     -340.281      72.059     168.549
  H     -343.226      63.368     171.866
  H     -342.701      64.893     172.489
  H     -341.793      72.773     167.926
  P     -345.265      71.258     167.133
  C     -345.005      73.758     166.504
  O     -345.721      72.545     166.286
  O     -344.970      71.845     168.592
  O     -346.251      70.139     167.195
  H     -345.496      71.360     169.262
  H     -345.409      74.528     165.881
  H     -343.973      73.611     166.265
  H     -345.095      74.046     167.531

 6  7  8  9  10  11  12  13  14  15  25  28  32  33  34  35 0
 6-311+G(2d,p)
 ****
 36  39  40 0
 6-311+G(2d,p)
 ****
 1  2  3  4  5  16  17  18  19  20  21  22  23  24 0
 3-21G
 ****
 26  27  29  30  31  37  38  41  42  43  44  45  46  47  48 0
 3-21G
 ****


