%nproc=1
%NoSave
%Mem=1900MB
#P OB98/GEN NMR

erre ene a

0 1
  C      -29.269    -345.321     379.987
  O      -28.761    -344.307     380.837
  P      -28.161    -342.984     380.148
  C      -26.225    -342.571     378.458
  O      -26.787    -343.425     379.446
  C      -25.059    -343.266     377.763
  O      -25.535    -344.246     376.816
  C      -24.165    -342.331     376.954
  O      -23.227    -341.642     377.768
  C      -23.455    -343.320     376.047
  O      -22.376    -343.956     376.755
  C      -24.565    -344.332     375.744
  N      -24.776    -345.640     370.857
  C      -24.113    -346.244     371.906
  N      -23.350    -347.320     371.596
  N      -24.189    -345.842     373.146
  C      -24.984    -344.752     373.305
  C      -25.694    -344.068     372.344
  C      -25.585    -344.517     370.973
  O      -26.106    -343.988     369.994
  N      -26.390    -343.019     372.890
  C      -26.107    -343.069     374.176
  N      -25.224    -344.076     374.473
  O      -27.674    -342.106     381.393
  O      -29.122    -342.248     379.278
  H      -21.767    -343.243     377.036
  H      -27.544    -341.178     381.117
  H      -24.677    -345.985     369.917
  H      -26.501    -342.392     374.922
  H      -24.188    -345.361     375.723
  H      -23.018    -342.845     375.161
  H      -23.200    -347.643     370.652
  H      -24.763    -341.639     376.347
  H      -22.804    -347.745     372.337
  H      -24.473    -343.793     378.527
  H      -25.876    -341.652     378.935
  H      -26.998    -342.311     377.730
  P      -22.333    -340.521     377.049
  C      -20.703    -340.614     375.026
  O      -21.351    -341.321     376.073
  O      -21.379    -340.009     378.226
  O      -23.120    -339.408     376.434
  H      -21.093    -339.093     378.061
  H      -19.884    -341.228     374.639
  H      -20.283    -339.671     375.389
  H      -21.409    -340.419     374.219
  H      -29.632    -346.135     380.580
  H      -28.489    -345.670     379.342
  H      -30.069    -344.924     379.397

 3  4  5  6  7  8  9  10  11  12  23  26  30  31 0
 6-311+G(2d,p)
 ****
 33  35  36  37  38 0
 6-311+G(2d,p)
 ****
 1  2  13  14  15  16  17  18  19  20  21  22  24  25 0
 3-21G
 ****
 27  28  29  32  34  39  40  41  42  43  44  45  46  47  48  49 0
 3-21G
 ****


