%nproc=1
%NoSave
%Mem=1900MB
#P OB98/GEN NMR

erre ene a

0 1
  C       33.499      24.192      -7.072
  O       34.886      23.941      -7.293
  P       35.566      22.699      -6.543
  C       36.594      21.232      -8.400
  O       36.835      22.217      -7.400
  C       37.520      21.453      -9.609
  O       37.016      22.571     -10.388
  C       38.967      21.812      -9.257
  O       39.901      20.751      -9.074
  C       39.402      22.563     -10.514
  O       39.810      21.623     -11.526
  C       38.133      23.280     -10.964
  N       39.327      28.057     -12.349
  C       39.485      26.870     -12.973
  N       39.141      25.642     -12.534
  C       38.565      25.712     -11.324
  C       38.335      26.850     -10.569
  C       38.747      28.071     -11.127
  N       38.598      29.279     -10.487
  N       37.731      26.527      -9.372
  C       37.616      25.214      -9.399
  N       38.092      24.676     -10.562
  O       34.641      21.617      -6.100
  O       36.263      23.400      -5.278
  H       39.915      22.132     -12.351
  H       36.185      22.808      -4.505
  H       39.952      26.910     -13.953
  H       37.197      24.615      -8.603
  H       38.005      23.259     -12.051
  H       40.259      23.218     -10.333
  H       39.003      22.485      -8.393
  H       37.500      20.559     -10.244
  H       35.551      21.285      -8.722
  H       38.961      30.104     -10.938
  H       38.220      29.302      -9.551
  H       36.734      20.255      -7.939
  P       41.173      20.915      -8.116
  C       40.524      19.290      -6.172
  O       41.299      19.527      -7.326
  O       41.159      22.124      -7.246
  O       42.395      20.854      -9.146
  H       42.526      19.986      -9.562
  H       40.592      18.230      -5.915
  H       39.477      19.544      -6.347
  H       40.915      19.880      -5.338
  H       33.197      25.048      -7.638
  H       33.331      24.376      -6.031
  H       32.929      23.341      -7.380

 3  4  5  6  7  8  9  10  11  12  22  25  29  30  31  32 0
 6-311+G(2d,p)
 ****
 33  36  37 0
 6-311+G(2d,p)
 ****
 1  2  13  14  15  16  17  18  19  20  21  23  24  26 0
 3-21G
 ****
 27  28  34  35  38  39  40  41  42  43  44  45  46  47  48 0
 3-21G
 ****


