%nproc=1
%NoSave
%Mem=1900MB
#P OB98/GEN NMR

erre ene a

0 1
  C      344.773     376.906    -569.948
  O      344.200     377.983    -570.665
  P      345.093     378.679    -571.803
  C      344.093     377.464    -573.876
  O      345.205     377.603    -572.986
  C      344.527     377.754    -575.314
  O      344.886     379.144    -575.442
  C      345.739     376.967    -575.768
  O      345.386     375.646    -576.091
  C      346.201     377.799    -576.962
  O      345.514     377.397    -578.162
  C      345.801     379.237    -576.552
  N      346.958     380.060    -576.223
  C      347.592     380.679    -577.312
  O      347.177     380.493    -578.461
  N      348.702     381.456    -577.063
  C      349.131     381.599    -575.854
  N      350.232     382.381    -575.676
  C      348.508     380.948    -574.690
  C      347.434     380.199    -574.939
  O      346.555     378.678    -571.155
  O      344.643     380.048    -572.197
  H      344.557     377.382    -577.922
  H      347.098     379.399    -571.524
  H      348.909     381.095    -573.690
  H      346.913     379.680    -574.145
  H      345.259     379.728    -577.371
  H      347.274     377.673    -577.159
  H      346.519     376.986    -574.990
  H      343.668     377.563    -575.975
  H      350.646     382.804    -576.492
  H      343.306     378.175    -573.590
  H      350.635     382.568    -574.770
  H      343.699     376.446    -573.788
  P      346.544     374.536    -576.095
  C      346.537     374.388    -573.540
  O      347.288     374.709    -574.684
  O      347.607     375.177    -577.114
  O      346.166     373.145    -576.480
  H      348.325     374.538    -577.287
  H      347.200     374.398    -572.671
  H      346.101     373.391    -573.636
  H      345.746     375.131    -573.382
  H      344.070     376.543    -569.228
  H      345.657     377.241    -569.446
  H      345.026     376.119    -570.628

 3  4  5  6  7  8  9  10  11  12  13  21  23  27  28  29  30  32 0
 6-311+G(2d,p)
 ****
 34  35 0
 6-311+G(2d,p)
 ****
 1  2  14  15  16  17  18  19  20  22  24  25  26 0
 3-21G
 ****
 31  33  36  37  38  39  40  41  42  43  44  45  46 0
 3-21G
 ****


