%nproc=1
%NoSave
%Mem=1900MB
#P OB98/GEN NMR

erre ene a

0 1
  C       46.596     125.212    -466.182
  O       46.175     124.613    -464.970
  H       47.407     125.909    -465.964
  H       45.767     125.764    -466.634
  H       46.959     124.447    -466.873
  P       44.995     123.532    -465.079
  C       46.399     121.361    -464.911
  O       45.691     122.255    -465.758
  C       46.709     120.058    -465.647
  O       45.497     119.430    -466.104
  C       47.575     120.235    -466.892
  O       48.945     120.348    -466.542
  C       47.285     118.936    -467.626
  O       48.067     117.867    -467.051
  C       45.790     118.708    -467.332
  N       42.756     117.243    -471.202
  C       43.660     116.564    -470.468
  N       44.462     117.029    -469.483
  C       44.261     118.341    -469.281
  C       43.370     119.166    -469.957
  C       42.581     118.563    -470.951
  N       41.652     119.260    -471.696
  N       43.438     120.455    -469.477
  C       44.323     120.404    -468.495
  N       44.870     119.152    -468.361
  O       43.733     124.013    -465.706
  O       44.862     123.070    -463.548
  H       47.917     117.071    -467.588
  H       45.740     123.014    -463.131
  H       43.757     115.507    -470.696
  H       44.577     121.228    -467.847
  H       45.570     117.651    -467.148
  H       47.551     118.990    -468.683
  H       47.235     121.075    -467.501
  H       47.183     119.373    -464.932
  H       45.811     121.146    -464.011
  H       41.258     118.793    -472.499
  H       41.614     120.262    -471.591
  H       47.321     121.854    -464.609
  P       50.046     120.706    -467.651
  C       51.320     122.380    -466.171
  O       50.533     122.207    -467.345
  O       49.624     120.472    -469.060
  O       51.320     119.825    -467.257
  H       51.762     119.490    -468.059
  H       51.586     123.411    -466.068
  H       52.209     121.789    -466.247
  H       50.757     122.070    -465.315

 6  7  8  9  10  11  12  13  14  15  25  28  32  33  34  35 0
 6-311+G(2d,p)
 ****
 36  39  40 0
 6-311+G(2d,p)
 ****
 1  2  3  4  5  16  17  18  19  20  21  22  23  24 0
 3-21G
 ****
 26  27  29  30  31  37  38  41  42  43  44  45  46  47 0
 3-21G
 ****
 48 0
 3-21G
 ****


