%nproc=1
%NoSave
%Mem=1900MB
#P OB98/GEN NMR

erre ene a

0 1
  C      -53.494     -66.866     -40.018
  O      -52.837     -65.891     -40.836
  P      -51.230     -65.963     -40.873
  C      -50.751     -64.276     -38.957
  O      -50.683     -65.626     -39.400
  C      -50.290     -64.128     -37.506
  O      -50.211     -62.721     -37.171
  C      -51.209     -64.785     -36.469
  O      -50.398     -65.337     -35.421
  C      -51.971     -63.612     -35.883
  O      -52.485     -63.897     -34.585
  C      -50.889     -62.535     -35.918
  N      -51.948     -58.706     -32.789
  C      -51.287     -59.892     -32.540
  N      -50.869     -60.094     -31.271
  N      -51.054     -60.798     -33.452
  C      -51.500     -60.447     -34.683
  C      -52.160     -59.298     -35.058
  C      -52.447     -58.324     -34.027
  O      -53.075     -57.278     -34.174
  N      -52.454     -59.304     -36.400
  C      -51.982     -60.456     -36.832
  N      -51.401     -61.187     -35.827
  O      -50.828     -64.680     -41.741
  O      -50.698     -67.219     -41.479
  H      -53.116     -63.187     -34.364
  H      -50.285     -64.952     -42.506
  H      -52.118     -58.052     -32.045
  H      -52.052     -60.819     -37.847
  H      -50.159     -62.677     -35.113
  H      -52.814     -63.361     -36.538
  H      -50.957     -59.411     -30.536
  H      -51.870     -65.557     -36.874
  H      -50.341     -60.937     -31.080
  H      -49.275     -64.536     -37.426
  H      -51.781     -63.919     -39.044
  H      -50.129     -63.660     -39.616
  P      -50.299     -66.937     -35.363
  C      -52.571     -67.222     -34.130
  O      -51.808     -67.466     -35.296
  O      -49.732     -67.219     -33.893
  O      -49.441     -67.535     -36.428
  H      -49.242     -68.062     -33.876
  H      -52.084     -66.508     -33.460
  H      -52.716     -68.165     -33.597
  H      -53.546     -66.824     -34.422
  H      -54.553     -66.721     -40.071
  H      -53.170     -66.758     -39.004
  H      -53.250     -67.847     -40.367

 3  4  5  6  7  8  9  10  11  12  23  26  30  31  33  0
 6-311+G(2d,p)
 ****
 35  36  37  38 0
 6-311+G(2d,p)
 ****
 1  2  13  14  15  16  17  18  19  20  21  22  24  25  27  28  29 0
 3-21G
 ****
 32  34  39  40  41  42  43  44  45  46  47  48  49 0
 3-21G
 ****


