%nproc=1
%NoSave
%Mem=1900MB
#P OB98/GEN NMR

erre ene a

0 1
  C     -328.575     155.998      41.993
  O     -327.215     156.351      41.698
  P     -326.817     156.735      40.182
  C     -324.520     155.568      39.748
  O     -325.923     155.574      39.531
  C     -323.752     155.398      38.432
  O     -323.681     153.993      38.057
  C     -324.370     156.150      37.237
  O     -323.293     156.561      36.384
  C     -325.183     155.056      36.555
  O     -325.500     155.357      35.200
  C     -324.238     153.867      36.736
  N     -324.879     152.560      36.568
  C     -324.844     151.970      35.305
  O     -324.357     152.496      34.311
  N     -325.414     150.727      35.211
  C     -326.056     150.052      36.215
  O     -326.580     148.959      36.059
  C     -326.097     150.740      37.515
  C     -325.507     151.937      37.630
  O     -325.737     157.901      40.416
  O     -327.938     157.235      39.332
  H     -325.885     154.548      34.810
  H     -325.923     158.650      39.812
  H     -325.386     150.280      34.312
  H     -326.582     150.233      38.342
  H     -325.523     152.456      38.586
  H     -323.404     153.953      36.028
  H     -326.126     154.920      37.097
  H     -324.970     157.011      37.536
  H     -322.724     155.737      38.593
  H     -324.270     154.732      40.414
  H     -324.232     156.498      40.242
  P     -322.847     158.109      36.410
  C     -324.284     159.253      34.552
  O     -324.108     158.971      35.918
  O     -321.862     158.137      35.141
  O     -322.187     158.545      37.683
  H     -322.227     157.676      34.369
  H     -324.054     158.387      33.924
  H     -323.648     160.092      34.260
  H     -325.335     159.532      34.387
  H     -328.667     155.773      43.035
  H     -328.854     155.140      41.417
  H     -329.218     156.817      41.747

 3  4  5  6  7  8  9  10  11  12  13  23  28  29  30  31  32 0
 6-311+G(2d,p)
 ****
 33  34 0
 6-311+G(2d,p)
 ****
 1  2  14  15  16  17  18  19  20  21  22  24  25  26 0
 3-21G
 ****
 27  35  36  37  38  39  40  41  42  43  44  45 0
 3-21G
 ****


