%nproc=1
%NoSave
%Mem=1900MB
#P OB98/GEN NMR

erre ene a

0 1
  C      525.071     -78.409     288.719
  O      525.900     -77.363     288.181
  P      525.579     -76.841     286.704
  C      524.617     -74.752     287.940
  O      524.530     -75.622     286.825
  C      524.034     -73.381     287.592
  O      524.703     -72.791     286.449
  C      522.568     -73.404     287.230
  O      521.721     -73.427     288.375
  C      522.413     -72.076     286.488
  O      522.299     -71.001     287.443
  C      523.732     -71.980     285.733
  N      523.715     -70.615     280.794
  C      523.758     -69.891     281.935
  N      523.732     -70.319     283.209
  C      523.688     -71.659     283.255
  C      523.644     -72.539     282.176
  C      523.666     -71.965     280.895
  N      523.626     -72.711     279.740
  N      523.593     -73.839     282.610
  C      523.620     -73.767     283.924
  N      523.666     -72.465     284.366
  O      524.693     -78.016     286.073
  O      526.789     -76.549     285.884
  H      522.197     -70.177     286.928
  H      524.878     -78.095     285.116
  H      523.807     -68.809     281.809
  H      523.598     -74.621     284.603
  H      524.110     -70.957     285.691
  H      521.513     -72.053     285.859
  H      522.336     -74.249     286.558
  H      524.183     -72.712     288.462
  H      525.656     -74.647     288.262
  H      523.670     -72.225     278.856
  H      523.607     -73.708     279.802
  H      524.075     -75.193     288.781
  P      520.498     -74.458     288.396
  C      520.004     -73.850     290.869
  O      520.286     -74.861     289.938
  O      521.134     -75.773     287.722
  O      519.286     -73.979     287.679
  H      520.443     -76.273     287.255
  H      519.603     -74.311     291.779
  H      519.268     -73.147     290.477
  H      520.919     -73.318     291.138
  H      525.401     -78.653     289.707
  H      525.140     -79.276     288.095
  H      524.055     -78.076     288.755

 3  4  5  6  7  8  9  10  11  12  22  25  29  30  31  32 0
 6-311+G(2d,p)
 ****
 33  36  37 0
 6-311+G(2d,p)
 ****
 1  2  13  14  15  16  17  18  19  20  21  23  24  26 0
 3-21G
 ****
 27  28  34  35  38  39  40  41  42  43  44  45  46  47  48 0
 3-21G
 ****


