%nproc=1
%NoSave
%Mem=1900MB
#P OB98/GEN NMR

erre ene a

0 1
  C     -410.550    -705.063     180.891
  O     -409.684    -706.156     180.624
  H     -410.375    -704.716     181.915
  H     -411.596    -705.394     180.811
  H     -410.354    -704.245     180.195
  P     -409.782    -706.806     179.162
  C     -407.227    -706.569     178.665
  O     -408.342    -707.432     178.855
  C     -405.948    -707.205     179.193
  O     -405.979    -707.180     180.656
  C     -405.762    -708.679     178.778
  O     -404.349    -708.935     178.721
  C     -406.374    -709.408     179.978
  O     -406.022    -710.773     179.966
  C     -405.821    -708.543     181.111
  N     -406.594    -711.752     185.016
  C     -405.789    -711.824     183.930
  N     -405.628    -710.931     182.947
  C     -406.386    -709.840     183.155
  C     -407.258    -709.615     184.216
  C     -407.352    -710.634     185.185
  N     -408.179    -710.561     186.278
  N     -407.879    -708.372     184.091
  C     -407.394    -707.873     182.978
  N     -406.505    -708.729     182.373
  O     -409.859    -705.525     178.197
  O     -410.934    -707.739     178.946
  H     -406.438    -711.246     180.718
  H     -410.779    -705.318     177.996
  H     -405.206    -712.743     183.851
  H     -407.650    -706.907     182.561
  H     -404.746    -708.730     181.274
  H     -407.468    -709.362     179.937
  H     -406.223    -708.919     177.818
  H     -405.086    -706.598     178.893
  H     -407.427    -705.624     179.189
  H     -407.117    -706.353     177.592
  H     -408.198    -711.345     186.922
  H     -408.758    -709.736     186.409
  P     -403.841    -710.269     177.967
  C     -402.440    -708.921     176.212
  O     -402.459    -709.945     177.219
  O     -404.872    -710.386     176.753
  O     -403.854    -711.536     178.788
  H     -404.979    -711.335     176.481
  H     -401.451    -708.830     175.814
  H     -402.737    -707.989     176.645
  H     -403.118    -709.181     175.426

 6  7  8  9  10  11  12  13  14  15  25  28  32  33  34  35 0
 6-311+G(2d,p)
 ****
 36  37  40 0
 6-311+G(2d,p)
 ****
 1  2  3  4  5  16  17  18  19  20  21  22  23  24 0
 3-21G
 ****
 26  27  29  30  31  38  39 41  42  43  44  45  46  47  48 0
 3-21G
 ****


