%nproc=1
%NoSave
%Mem=1900MB
#P OB98/GEN NMR

erre ene a

0 1
  C      140.172    -579.125     468.031
  O      139.830    -579.905     469.185
  P      138.261    -579.895     469.593
  C      138.706    -578.886     471.939
  O      138.188    -579.971     471.194
  C      138.589    -579.149     473.451
  O      137.348    -579.848     473.753
  C      139.738    -579.988     474.014
  O      140.004    -579.502     475.343
  C      139.125    -581.382     474.066
  O      139.847    -582.295     474.880
  C      137.715    -581.029     474.529
  N      136.116    -585.541     476.292
  C      137.101    -584.712     476.692
  N      137.474    -583.524     476.159
  C      136.691    -583.207     475.121
  C      135.640    -583.951     474.600
  C      135.343    -585.169     475.227
  N      134.361    -586.035     474.820
  N      135.083    -583.303     473.501
  C      135.825    -582.223     473.331
  N      136.757    -582.093     474.326
  O      137.737    -581.319     469.099
  O      137.501    -578.765     468.980
  H      139.406    -583.159     474.856
  H      137.270    -581.240     468.243
  H      137.696    -585.060     477.542
  H      135.752    -581.523     472.511
  H      137.689    -580.753     475.576
  H      139.115    -581.794     473.046
  H      140.653    -579.930     473.427
  H      138.548    -578.172     473.963
  H      138.160    -577.962     471.695
  H      134.229    -586.888     475.337
  H      133.771    -585.796     474.022
  H      139.737    -578.701     471.648
  P      141.428    -578.824     475.648
  C      141.836    -580.269     477.732
  O      141.590    -578.944     477.245
  O      141.031    -577.252     475.525
  O      142.563    -579.236     474.790
  H      140.232    -577.049     476.037
  H      142.011    -580.219     478.802
  H      142.710    -580.699     477.236
  H      140.948    -580.893     477.553
  H      141.224    -579.199     467.849
  H      139.911    -578.102     468.202
  H      139.636    -579.492     467.181

 3  4  5  6  7  8  9  10  11  12  22  25  29  30  31  32 0
 6-311+G(2d,p)
 ****
 33  36  37 0
 6-311+G(2d,p)
 ****
 1  2  13  14  15  16  17  18  19  20  21  23  24  26 0
 3-21G
 ****
 27  28  34  35  38  39  40  41  42  43  44  45  46  47  48 0
 3-21G
 ****


