%nproc=1
%NoSave
%Mem=1900MB
#P OB98/GEN NMR

erre ene a

0 1
  C     -206.581     339.811    -133.795
  O     -207.814     339.571    -134.479
  P     -209.059     340.504    -134.067
  C     -208.890     341.613    -136.416
  O     -209.019     341.800    -135.012
  C     -209.975     342.381    -137.166
  O     -211.243     341.708    -137.076
  C     -210.233     343.783    -136.629
  O     -209.262     344.710    -137.092
  C     -211.597     344.085    -137.232
  O     -211.442     344.543    -138.588
  C     -212.282     342.708    -137.207
  N     -216.893     343.863    -135.446
  C     -216.286     344.213    -136.635
  N     -217.023     344.956    -137.489
  N     -215.067     343.869    -136.960
  C     -214.460     343.101    -136.023
  C     -214.954     342.688    -134.808
  C     -216.293     343.104    -134.447
  O     -216.865     342.848    -133.394
  N     -214.046     341.914    -134.135
  C     -213.015     341.832    -134.952
  N     -213.213     342.551    -136.107
  O     -208.619     341.077    -132.638
  O     -210.363     339.782    -134.004
  H     -211.113     345.462    -138.543
  H     -209.409     341.296    -132.109
  H     -217.829     344.162    -135.244
  H     -212.110     341.270    -134.759
  H     -212.816     342.501    -138.141
  H     -212.136     344.867    -136.692
  H     -217.991     345.196    -137.336
  H     -210.303     343.775    -135.534
  H     -216.608     345.195    -138.382
  H     -209.684     342.436    -138.224
  H     -208.965     340.551    -136.656
  H     -207.892     341.939    -136.726
  P     -208.640     345.719    -136.011
  C     -206.287     344.722    -135.564
  O     -207.628     344.841    -135.135
  O     -209.870     345.999    -135.027
  O     -208.088     346.978    -136.592
  H     -209.784     346.884    -134.625
  H     -205.895     345.685    -135.902
  H     -206.225     343.993    -136.377
  H     -205.680     344.371    -134.727
  H     -205.836     339.132    -134.154
  H     -206.721     339.663    -132.745
  H     -206.264     340.817    -133.974

 3  4  5  6  7  8  9  10  11  12  23  26  30  31  33  0
 6-311+G(2d,p)
 ****
 35  36  37  38 0
 6-311+G(2d,p)
 ****
 1  2  13  14  15  16  17  18  19  20  21  22  24  25  27  28  29 0
 3-21G
 ****
 32  34  39  40  41  42  43  44  45  46  47  48  49 0
 3-21G
 ****


