%nproc=1
%NoSave
%Mem=1900MB
#P OB98/GEN NMR

erre ene a

0 1
  C     -151.237    -426.961     375.641
  O     -150.552    -426.691     374.441
  P     -149.008    -427.077     374.259
  C     -149.559    -427.246     371.743
  O     -148.633    -426.779     372.723
  C     -148.827    -427.571     370.439
  O     -148.431    -426.323     369.795
  C     -147.547    -428.419     370.662
  O     -147.484    -429.607     369.873
  C     -146.436    -427.416     370.421
  O     -145.187    -428.004     370.106
  C     -147.064    -426.504     369.362
  N     -146.349    -425.230     369.222
  C     -146.223    -424.716     367.934
  O     -146.674    -425.242     366.923
  N     -145.488    -423.560     367.826
  C     -144.782    -422.970     368.825
  O     -144.065    -421.989     368.637
  C     -144.922    -423.576     370.152
  C     -145.704    -424.647     370.303
  O     -148.637    -428.446     374.723
  O     -148.243    -425.901     375.021
  H     -144.668    -427.349     369.611
  H     -148.413    -425.009     374.675
  H     -145.389    -423.181     366.895
  H     -144.368    -423.132     370.966
  H     -145.828    -425.129     371.271
  H     -147.088    -426.980     368.384
  H     -146.288    -426.847     371.350
  H     -147.496    -428.782     371.689
  H     -149.528    -428.095     369.779
  H     -150.290    -426.460     371.555
  H     -150.095    -428.123     372.130
  P     -146.678    -430.933     370.266
  C     -148.799    -432.443     370.110
  O     -147.475    -432.196     369.685
  O     -146.302    -431.038     371.711
  O     -145.366    -430.865     369.345
  H     -144.629    -431.325     369.799
  H     -148.989    -433.517     370.053
  H     -149.492    -431.917     369.445
  H     -148.960    -432.110     371.138
  H     -152.250    -426.627     375.556
  H     -150.758    -426.447     376.448
  H     -151.223    -428.014     375.830

 3  4  5  6  7  8  9  10  11  12  13  23  28  29  30  31  32 0
 6-311+G(2d,p)
 ****
 33  34 0
 6-311+G(2d,p)
 ****
 1  2  14  15  16  17  18  19  20  21  22  24  25  26  27 0
 3-21G
 ****
 35  36  37  38  39  40  41  42  43  44  45 0
 3-21G
 ****


