%nproc=1
%NoSave
%Mem=1900MB
#P OB98/GEN NMR

erre ene a

0 1
  C     -183.134    -896.140     203.520
  O     -183.516    -897.410     204.006
  H     -182.044    -896.140     203.371
  H     -183.386    -895.360     204.243
  H     -183.615    -895.930     202.556
  P     -185.051    -897.660     204.375
  C     -185.572    -898.190     201.902
  O     -185.900    -897.390     203.028
  C     -186.846    -898.580     201.141
  O     -187.629    -899.440     202.011
  C     -187.702    -897.350     200.769
  O     -188.037    -897.300     199.397
  C     -188.862    -897.430     201.778
  O     -190.053    -896.810     201.337
  C     -188.975    -898.930     202.064
  N     -189.584    -899.240     203.366
  C     -190.959    -899.180     203.446
  O     -191.718    -898.920     202.508
  N     -191.505    -899.460     204.686
  C     -190.795    -899.770     205.808
  O     -191.331    -900.000     206.885
  C     -189.330    -899.790     205.657
  C     -188.801    -899.520     204.471
  O     -185.556    -896.940     205.580
  O     -185.154    -899.260     204.552
  H     -190.250    -897.150     200.436
  H     -185.176    -899.470     205.505
  H     -192.500    -899.430     204.751
  H     -188.746    -900.000     206.530
  H     -187.722    -899.500     204.331
  H     -189.560    -899.420     201.295
  H     -188.542    -896.900     202.693
  H     -187.150    -896.420     200.943
  H     -186.572    -899.160     200.253
  H     -185.061    -899.090     202.261
  H     -184.901    -897.620     201.244
  P     -187.675    -896.090     198.412
  C     -186.562    -897.760     196.729
  O     -186.464    -896.550     197.480
  O     -187.553    -894.750     199.057
  O     -188.940    -896.040     197.393
  H     -189.052    -895.080     197.155
  H     -185.663    -897.905     196.167
  H     -187.395    -897.698     196.060
  H     -186.702    -898.584     197.397

 6  7  8  9  10  11  12  13  14  15  16  26  31  32  33  34  35 0
 6-311+G(2d,p)
 ****
 36  37 0
 6-311+G(2d,p)
 ****
 1  2  3  4  5  17  18  19  20  21  22  23  24  25 0
 3-21G
 ****
 27  28  29  30  38  39  40  41  42  43  44  45 0
 3-21G
 ****


