%nproc=1
%NoSave
%Mem=1900MB
#P OB98/GEN NMR

erre ene a

0 1
  C      100.134      80.279     172.092
  O       98.934      79.609     171.756
  H       99.884      81.196     172.633
  H      100.684      80.544     171.184
  H      100.751      79.646     172.735
  P       99.088      78.216     170.973
  C       99.914      77.644     168.585
  O       99.422      78.647     169.464
  C      100.672      78.275     167.419
  O      101.748      79.100     167.904
  C      101.313      77.272     166.469
  O      100.359      76.764     165.553
  C      102.345      78.154     165.779
  O      101.704      78.940     164.755
  C      102.820      79.069     166.922
  N      107.579      80.469     168.245
  C      106.661      81.056     167.449
  N      105.433      80.607     167.108
  C      105.184      79.419     167.681
  C      106.026      78.699     168.519
  C      107.275      79.277     168.807
  N      108.206      78.678     169.629
  N      105.431      77.518     168.914
  C      104.230      77.553     168.371
  N      104.047      78.662     167.586
  O       97.973      77.245     171.153
  O      100.515      77.721     171.510
  H      101.317      78.320     164.108
  H      101.127      78.472     171.596
  H      106.948      82.017     167.029
  H      103.457      76.810     168.525
  H      102.980      80.098     166.578
  H      103.129      77.572     165.290
  H      101.829      76.476     167.016
  H       99.974      78.933     166.885
  H       99.090      77.031     168.206
  H      109.134      79.074     169.646
  H      108.025      77.736     169.943
  H      100.584      77.000     169.167
  P      100.563      75.326     164.872
  C      101.914      74.481     162.851
  O      101.815      75.464     163.875
  O       99.342      74.741     164.253
  O      101.134      74.404     166.046
  H      100.762      73.503     165.985
  H      102.781      74.674     162.254
  H      101.040      74.519     162.235
  H      101.996      73.511     163.295

 6  7  8  9  10  11  12  13  14  15  25  28  32  33  34  35 0
 6-311+G(2d,p)
 ****
 36  39  40 0
 6-311+G(2d,p)
 ****
 1  2  3  4  5  16  17  18  19  20  21  22  23  24 0
 3-21G
 ****
 26  27  29  30  31  37  38  41  42  43  44  45  46  47 0
 3-21G
 ****
 48 0
 3-21G
 ****


