%nproc=1
%NoSave
%Mem=1900MB
#P OB98/GEN NMR

erre ene a

0 1
  C      -15.807      24.746     -44.250
  O      -16.322      24.863     -42.935
  P      -16.658      23.507     -42.143
  C      -15.596      24.214     -39.876
  O      -16.784      23.908     -40.595
  C      -15.939      24.648     -38.454
  O      -16.572      25.943     -38.452
  C      -16.915      23.724     -37.738
  O      -16.278      22.578     -37.198
  C      -17.411      24.630     -36.624
  O      -16.449      24.666     -35.553
  C      -17.480      25.993     -37.325
  N      -22.048      27.658     -35.929
  C      -20.862      27.636     -35.222
  N      -20.918      28.064     -33.943
  N      -19.725      27.234     -35.723
  C      -19.823      26.826     -37.013
  C      -20.940      26.804     -37.817
  C      -22.194      27.240     -37.245
  O      -23.285      27.234     -37.803
  N      -20.644      26.333     -39.069
  C      -19.353      26.072     -39.027
  N      -18.818      26.313     -37.788
  O      -15.282      22.694     -42.201
  O      -17.798      22.725     -42.702
  H      -16.669      23.923     -34.955
  H      -15.440      21.754     -41.994
  H      -22.900      27.972     -35.496
  H      -18.771      25.693     -39.857
  H      -17.146      26.805     -36.672
  H      -18.357      24.293     -36.190
  H      -21.775      28.327     -33.479
  H      -17.756      23.452     -38.388
  H      -20.077      27.999     -33.381
  H      -15.001      24.728     -37.889
  H      -15.064      25.019     -40.387
  H      -14.949      23.331     -39.857
  P      -17.089      21.195     -37.278
  C      -15.025      19.619     -37.197
  O      -16.168      20.118     -36.531
  O      -16.971      20.797     -38.823
  O      -18.506      21.283     -36.821
  H      -17.725      20.238     -39.089
  H      -14.383      19.119     -36.466
  H      -14.457      20.428     -37.664
  H      -15.325      18.893     -37.956
  H      -15.631      25.722     -44.652
  H      -16.513      24.229     -44.865
  H      -14.888      24.199     -44.226

 3  4  5  6  7  8  9  10  11  12  23  26  30  31 0
 6-311+G(2d,p)
 ****
 33  35  36  37  38 0
 6-311+G(2d,p)
 ****
 1  2  13  14  15  16  17  18  19  20  21  22  24  25 0
 3-21G
 ****
 27  28  29  32  34  39  40  41  42  43  44  45  46  47  48  49 0
 3-21G
 ****


