%nproc=1
%NoSave
%Mem=1900MB
#P OB98/GEN NMR

erre ene a

0 1
  C       51.349    -123.238     173.324
  O       50.579    -124.411     173.504
  P       49.953    -124.769     174.933
  C       52.246    -125.256     175.970
  O       50.962    -125.786     175.663
  C       52.710    -125.696     177.358
  O       54.082    -125.254     177.561
  C       51.876    -125.139     178.520
  O       51.860    -126.147     179.538
  C       52.699    -123.952     178.991
  O       52.393    -123.555     180.322
  C       54.106    -124.505     178.796
  N       56.316    -120.622     181.284
  C       55.296    -121.441     181.623
  N       54.749    -122.435     180.893
  C       55.364    -122.549     179.704
  C       56.396    -121.768     179.208
  C       56.894    -120.771     180.067
  N       57.954    -119.948     179.753
  N       56.720    -122.157     177.921
  C       55.898    -123.150     177.648
  N       55.106    -123.464     178.720
  O       48.528    -125.212     174.912
  O       50.124    -123.421     175.780
  H       51.446    -123.322     180.363
  H       49.259    -122.978     175.877
  H       54.867    -121.279     182.606
  H       55.835    -123.672     176.704
  H       54.394    -125.192     179.602
  H       52.514    -123.092     178.331
  H       50.853    -124.859     178.240
  H       52.719    -126.793     177.385
  H       52.178    -124.165     175.939
  H       58.314    -119.363     180.490
  H       58.564    -120.209     178.980
  H       52.970    -125.579     175.210
  P       50.475    -126.830     179.971
  C       50.245    -124.924     181.666
  O       50.162    -126.323     181.457
  O       50.399    -128.308     179.767
  O       49.386    -126.053     179.086
  H       48.556    -126.571     179.061
  H       51.294    -124.638     181.797
  H       49.689    -124.665     182.570
  H       49.824    -124.373     180.818
  H       51.675    -123.178     172.307
  H       52.201    -123.268     173.971
  H       50.753    -122.381     173.559

 3  4  5  6  7  8  9  10  11  12  22  25  29  30  31  32 0
 6-311+G(2d,p)
 ****
 33  36  37 0
 6-311+G(2d,p)
 ****
 1  2  13  14  15  16  17  18  19  20  21  23  24  26 0
 3-21G
 ****
 27  28  34  35  38  39  40  41  42  43  44  45  46  47  48 0
 3-21G
 ****


