%nproc=1
%NoSave
%Mem=1900MB
#P OB98/GEN NMR

erre ene a

0 1
  C       74.822    -101.585    -348.230
  O       75.662    -100.603    -347.612
  P       77.220    -100.938    -347.436
  C       77.466    -100.054    -345.018
  O       77.855     -99.888    -346.382
  C       77.348     -98.681    -344.328
  O       75.985     -98.184    -344.526
  C       77.557     -98.698    -342.804
  O       78.881     -98.524    -342.304
  C       76.765     -97.469    -342.379
  O       77.568     -96.293    -342.538
  C       75.598     -97.434    -343.361
  N       71.202     -96.312    -340.952
  C       72.220     -95.535    -341.395
  N       73.356     -95.916    -342.024
  C       73.375     -97.240    -342.206
  C       72.410     -98.157    -341.833
  C       71.281     -97.653    -341.167
  N       70.244     -98.443    -340.726
  N       72.785     -99.450    -342.189
  C       73.969     -99.299    -342.744
  N       74.362     -97.993    -342.809
  O       77.997    -101.118    -348.695
  O       77.187    -102.294    -346.581
  H       77.770     -96.219    -343.495
  H       77.914    -102.876    -346.885
  H       72.112     -94.471    -341.204
  H       74.573    -100.120    -343.134
  H       75.352     -96.417    -343.694
  H       76.473     -97.507    -341.317
  H       77.112     -99.606    -342.361
  H       78.035     -97.974    -344.794
  H       78.225    -100.654    -344.495
  H       69.487     -98.003    -340.226
  H       70.308     -99.445    -340.817
  H       76.537    -100.624    -344.997
  P       79.603     -99.656    -341.431
  C       81.347     -98.836    -339.670
  O       81.031     -99.044    -341.015
  O       79.658    -101.007    -342.057
  O       78.785     -99.604    -340.054
  H       78.915     -98.782    -339.541
  H       82.421     -98.621    -339.580
  H       81.139     -99.738    -339.072
  H       80.785     -97.979    -339.279
  H       73.818    -101.218    -348.275
  H       74.846    -102.487    -347.656
  H       75.174    -101.783    -349.221

 3  4  5  6  7  8  9  10  11  12  22  25  29  30  31  32 0
 6-311+G(2d,p)
 ****
 33  36  37 0
 6-311+G(2d,p)
 ****
 1  2  13  14  15  16  17  18  19  20  21  23  24  26 0
 3-21G
 ****
 27  28  34  35  38  39  40  41  42  43  44  45  46  47  48 0
 3-21G
 ****


