%nproc=1
%NoSave
%Mem=1900MB
#P OB98/GEN NMR

erre ene a

0 1
  C      356.345     372.980    1153.827
  O      357.099     373.863    1154.628
  H      355.364     372.843    1154.283
  H      356.842     372.012    1153.755
  H      356.210     373.411    1152.830
  P      358.596     374.175    1154.146
  C      357.590     375.658    1152.277
  O      358.445     374.567    1152.591
  C      357.850     376.145    1150.847
  O      359.139     376.771    1150.746
  C      357.831     375.040    1149.801
  O      356.493     374.757    1149.401
  C      358.612     375.694    1148.678
  O      357.756     376.582    1147.936
  C      359.679     376.508    1149.433
  N      364.561     376.485    1147.844
  C      363.479     377.144    1147.381
  N      362.192     377.057    1147.822
  C      362.091     376.207    1148.852
  C      363.122     375.459    1149.422
  C      364.403     375.644    1148.879
  N      365.517     374.967    1149.354
  N      362.638     374.684    1150.456
  C      361.368     374.996    1150.545
  N      360.982     375.877    1149.566
  O      359.617     373.131    1154.461
  O      358.857     375.599    1154.832
  H      358.319     377.045    1147.284
  H      358.058     376.156    1154.779
  H      363.649     377.819    1146.551
  H      360.680     374.621    1151.302
  H      359.855     377.486    1148.962
  H      359.012     374.969    1147.968
  H      358.359     374.139    1150.144
  H      357.105     376.922    1150.624
  H      357.751     376.494    1152.976
  H      366.356     375.003    1148.788
  H      365.376     374.231    1150.037
  H      356.558     375.319    1152.383
  P      356.105     373.335    1148.772
  C      355.900     371.822    1150.839
  O      356.741     372.247    1149.764
  O      356.449     373.183    1147.327
  O      354.530     373.201    1149.038
  H      354.151     372.505    1148.481
  H      356.420     371.101    1151.435
  H      355.009     371.382    1150.442
  H      355.642     372.665    1151.445

 6  7  8  9  10  11  12  13  14  15  25  28  32  33  34  35 0
 6-311+G(2d,p)
 ****
 36  39  40 0
 6-311+G(2d,p)
 ****
 1  2  3  4  5  16  17  18  19  20  21  22  23  24 0
 3-21G
 ****
 26  27  29  30  31  37  38  41  42  43  44  45  46  47 0
 3-21G
 ****
 48 0
 3-21G
 ****


