%nproc=1
%NoSave
%Mem=1900MB
#P OB98/GEN NMR

erre ene a

0 1
  C      -53.729     -60.023      29.544
  O      -53.950     -58.712      30.026
  H      -52.704     -60.092      29.172
  H      -54.418     -60.244      28.724
  H      -53.864     -60.749      30.350
  P      -55.429     -58.393      30.563
  C      -54.494     -58.503      32.977
  O      -55.491     -58.946      32.068
  C      -55.057     -58.431      34.394
  O      -55.347     -59.754      34.895
  C      -54.127     -57.772      35.406
  O      -54.248     -56.360      35.361
  C      -54.642     -58.365      36.710
  O      -55.830     -57.677      37.158
  C      -54.972     -59.807      36.299
  N      -52.302     -62.378      39.726
  C      -53.290     -61.430      39.895
  N      -53.597     -61.094      41.167
  N      -53.917     -60.850      38.906
  C      -53.470     -61.239      37.689
  C      -52.498     -62.166      37.390
  C      -51.850     -62.839      38.495
  O      -51.028     -63.746      38.410
  N      -52.340     -62.300      36.034
  C      -53.189     -61.432      35.518
  N      -53.894     -60.760      36.483
  O      -56.350     -59.425      29.754
  O      -55.893     -56.990      30.367
  H      -56.451     -57.596      36.413
  H      -57.191     -58.984      29.528
  H      -51.876     -62.814      40.523
  H      -53.337     -61.261      34.461
  H      -55.834     -60.201      36.848
  H      -53.910     -58.268      37.513
  H      -52.968     -61.278      41.935
  H      -53.088     -58.085      35.251
  H      -54.268     -60.346      41.286
  H      -56.012     -57.893      34.341
  H      -54.153     -57.509      32.671
  H      -53.648     -59.196      32.950
  P      -52.941     -55.479      35.643
  C      -52.269     -55.078      33.168
  O      -51.934     -55.680      34.409
  O      -52.229     -56.269      36.841
  O      -53.213     -54.064      36.024
  H      -52.356     -55.785      37.678
  H      -51.509     -55.298      32.448
  H      -52.344     -54.018      33.294
  H      -53.207     -55.464      32.826

 6  7  8  9  10  11  12  13  14  15  26  29  33  34 0
 6-311+G(2d,p)
 ****
 36  38  39  40  41 0
 6-311+G(2d,p)
 ****
 1  2  3  4  5  16  17  18  19  20  21  22  23  24  25 0
 3-21G
 ****
 27  28  30  31  32  35  37  42  43  44  45  46  47 0
 3-21G
 ****
 48  49 0
 3-21G
 ****


