%nproc=1
%NoSave
%Mem=1900MB
#P OB98/GEN NMR

erre ene a

0 1
  C      288.966     217.574    -381.303
  O      288.920     217.589    -382.714
  H      288.414     216.699    -380.940
  H      288.496     218.475    -380.900
  H      290.001     217.505    -380.955
  P      289.710     218.775    -383.449
  C      287.556     220.232    -383.405
  O      288.935     220.131    -383.073
  C      287.125     221.697    -383.386
  O      285.688     221.779    -383.527
  C      287.449     222.427    -382.084
  O      288.809     222.824    -382.026
  C      286.477     223.597    -382.151
  O      286.994     224.670    -382.949
  C      285.253     222.975    -382.842
  N      281.961     224.952    -379.489
  C      282.845     225.529    -380.333
  N      283.679     224.927    -381.212
  C      283.521     223.592    -381.172
  C      282.665     222.865    -380.361
  C      281.851     223.605    -379.485
  N      280.974     223.018    -378.602
  N      282.826     221.509    -380.579
  C      283.755     221.422    -381.507
  N      284.198     222.653    -381.900
  O      289.349     218.546    -384.993
  O      291.184     218.798    -383.216
  H      287.190     224.291    -383.831
  H      290.050     218.020    -385.419
  H      282.899     226.613    -380.293
  H      284.145     220.496    -381.919
  H      284.821     223.641    -383.598
  H      286.270     224.002    -381.158
  H      287.190     221.801    -381.220
  H      287.580     222.208    -384.242
  H      286.964     219.672    -382.668
  H      287.397     219.798    -384.396
  H      280.438     223.608    -377.988
  H      280.962     222.008    -378.518
  P      289.562     222.764    -380.611
  C      288.251     224.781    -379.619
  O      288.582     223.406    -379.512
  O      290.722     223.855    -380.772
  O      290.103     221.420    -380.248
  H      291.573     223.419    -380.972
  H      287.595     225.053    -378.819
  H      287.764     224.959    -380.555
  H      289.144     225.368    -379.564

 6  7  8  9  10  11  12  13  14  15  25  28  32  33  34  35 0
 6-311+G(2d,p)
 ****
 36  37  40 0
 6-311+G(2d,p)
 ****
 1  2  3  4  5  16  17  18  19  20  21  22  23  24 0
 3-21G
 ****
 26  27  29  30  31  38  39 41  42  43  44  45  46  47  48 0
 3-21G
 ****


