%nproc=1
%NoSave
%Mem=1900MB
#P OB98/GEN NMR

erre ene a

0 1
  C      551.475    -455.269      17.984
  O      551.402    -454.359      19.075
  P      551.199    -454.989      20.542
  C      551.540    -452.665      21.705
  O      550.686    -453.792      21.476
  C      550.909    -451.742      22.742
  O      549.756    -451.075      22.175
  C      550.403    -452.451      23.990
  O      551.478    -452.672      24.894
  C      549.359    -451.463      24.517
  O      549.989    -450.393      25.231
  C      548.732    -450.953      23.202
  N      543.702    -451.192      23.699
  C      544.628    -450.432      24.391
  N      544.137    -449.577      25.328
  N      545.919    -450.506      24.188
  C      546.274    -451.409      23.256
  C      545.442    -452.226      22.505
  C      544.015    -452.105      22.707
  O      543.150    -452.679      22.045
  N      546.168    -453.034      21.656
  C      547.415    -452.669      21.868
  N      547.531    -451.679      22.801
  O      552.697    -455.261      21.032
  O      550.340    -456.217      20.581
  H      550.454    -450.746      26.018
  H      552.934    -456.205      20.896
  H      542.716    -451.086      23.886
  H      548.277    -453.076      21.343
  H      548.464    -449.890      23.268
  H      548.647    -451.928      25.195
  H      543.153    -449.489      25.547
  H      549.918    -453.401      23.735
  H      544.798    -449.021      25.840
  H      551.647    -450.965      23.002
  H      551.676    -452.128      20.769
  H      552.515    -453.029      22.055
  P      551.685    -454.174      25.446
  C      554.181    -453.668      26.000
  O      552.925    -454.133      26.459
  O      552.262    -454.957      24.170
  O      550.444    -454.819      25.965
  H      551.912    -455.876      24.162
  H      554.720    -453.217      26.833
  H      554.060    -452.928      25.198
  H      554.755    -454.514      25.612
  H      551.610    -454.724      17.073
  H      550.568    -455.835      17.930
  H      552.302    -455.933      18.128

 3  4  5  6  7  8  9  10  11  12  23  26  30  31 0
 6-311+G(2d,p)
 ****
 33  35  36  37  38 0
 6-311+G(2d,p)
 ****
 1  2  13  14  15  16  17  18  19  20  21  22  24  25 0
 3-21G
 ****
 27  28  29  32  34  39  40  41  42  43  44  45  46  47  48  49 0
 3-21G
 ****


