%nproc=1
%NoSave
%Mem=1900MB
#P OB98/GEN NMR

erre ene a

0 1
  C     -340.201     402.348    -299.346
  O     -340.754     401.242    -298.664
  H     -339.468     402.836    -298.690
  H     -340.980     403.071    -299.603
  H     -339.692     402.014    -300.255
  P     -341.933     400.454    -299.422
  C     -344.386     399.928    -298.720
  O     -343.104     400.382    -298.328
  C     -345.293     399.807    -297.492
  O     -344.822     398.762    -296.615
  C     -345.344     401.066    -296.631
  O     -346.194     402.070    -297.165
  C     -345.896     400.491    -295.341
  O     -347.306     400.251    -295.482
  C     -345.113     399.161    -295.251
  N     -343.875     399.275    -294.469
  C     -344.001     399.311    -293.080
  O     -345.113     399.261    -292.552
  N     -342.867     399.440    -292.310
  C     -341.703     399.516    -292.879
  N     -340.621     399.655    -292.071
  C     -341.519     399.462    -294.342
  C     -342.624     399.339    -295.065
  O     -341.407     398.941    -299.466
  O     -342.327     401.005    -300.749
  H     -347.622     399.917    -294.617
  H     -342.119     398.345    -299.807
  H     -340.527     399.531    -294.776
  H     -342.573     399.301    -296.153
  H     -345.728     398.376    -294.796
  H     -345.764     401.155    -294.484
  H     -344.343     401.463    -296.438
  H     -346.295     399.517    -297.837
  H     -340.775     399.750    -291.075
  H     -344.279     398.952    -299.200
  H     -339.705     399.899    -292.424
  H     -344.833     400.628    -299.430
  P     -345.605     403.555    -297.289
  C     -345.539     405.652    -295.750
  O     -345.793     404.256    -295.855
  O     -346.696     404.307    -298.193
  O     -344.234     403.649    -297.880
  H     -346.268     404.914    -298.825
  H     -345.706     405.970    -294.742
  H     -346.196     406.184    -296.405
  H     -344.524     405.851    -296.023

 6  7  8  9  10  11  12  13  14  15  16  26  30  31  32  33  35 0
 6-311+G(2d,p)
 ****
 37  38 0
 6-311+G(2d,p)
 ****
 1  2  3  4  5  17  18  19  20  21  22  23  24  25 0
 3-21G
 ****
 27  28  29  34  36  39  40  41  42  43  44  45  46 0
 3-21G
 ****


