%nproc=1
%NoSave
%Mem=1900MB
#P OB98/GEN NMR

erre ene a

0 1
  C      190.823    -476.480       5.114
  O      190.079    -477.691       5.254
  P      188.780    -477.908       4.339
  C      186.666    -479.365       4.542
  O      187.645    -478.601       5.236
  C      186.219    -480.565       5.377
  O      187.237    -481.580       5.440
  C      185.913    -480.207       6.824
  O      184.679    -479.520       6.929
  C      185.954    -481.580       7.481
  O      184.704    -482.269       7.307
  C      187.066    -482.293       6.685
  N      188.321    -482.394       7.415
  C      188.314    -483.239       8.531
  O      187.280    -483.813       8.868
  N      189.477    -483.396       9.241
  C      190.546    -482.761       8.880
  N      191.673    -482.958       9.618
  C      190.594    -481.852       7.715
  C      189.454    -481.710       7.043
  O      189.025    -478.549       3.013
  O      188.217    -476.414       4.165
  H      184.738    -483.043       7.907
  H      187.763    -476.352       3.299
  H      191.511    -481.350       7.450
  H      189.394    -481.061       6.177
  H      186.752    -483.311       6.418
  H      186.133    -481.507       8.560
  H      186.720    -479.582       7.225
  H      185.323    -480.994       4.903
  H      191.612    -483.577      10.417
  H      187.078    -479.708       3.589
  H      192.565    -482.548       9.386
  H      185.815    -478.713       4.300
  P      184.686    -478.084       7.641
  C      183.154    -476.892       9.360
  O      183.610    -478.119       8.823
  O      183.999    -477.136       6.545
  O      186.041    -477.576       8.018
  H      184.397    -476.247       6.589
  H      182.227    -477.072       9.907
  H      182.960    -476.161       8.571
  H      183.899    -476.493      10.052
  H      191.653    -476.491       5.790
  H      190.192    -475.646       5.338
  H      191.182    -476.396       4.110

 3  4  5  6  7  8  9  10  11  12  13  23  27  28  29  30  32 0
 6-311+G(2d,p)
 ****
 34  35 0
 6-311+G(2d,p)
 ****
 1  2  14  15  16  17  18  19  20  21  22  24  25  26 0
 3-21G
 ****
 31  33  36  37  38  39  40  41  42  43  44  45  46 0
 3-21G
 ****


