%nproc=1
%NoSave
%Mem=1900MB
#P OB98/GEN NMR

erre ene a

0 1
  C       39.033     684.435    1062.257
  O       38.545     684.010    1063.527
  P       38.414     682.449    1063.857
  C       36.303     682.036    1062.469
  O       36.863     682.070    1063.760
  C       35.310     680.883    1062.334
  O       36.011     679.618    1062.211
  C       34.384     680.737    1063.546
  O       33.348     681.701    1063.534
  C       33.902     679.292    1063.365
  O       32.800     679.234    1062.404
  C       35.141     678.603    1062.803
  N       36.104     673.937    1064.638
  C       35.191     674.381    1063.714
  N       34.987     675.648    1063.315
  C       35.787     676.498    1063.970
  C       36.732     676.212    1064.949
  C       36.887     674.835    1065.258
  N       37.838     674.360    1066.147
  N       37.334     677.343    1065.413
  C       36.770     678.347    1064.723
  N       35.883     677.862    1063.804
  O       39.129     681.988    1065.096
  O       39.050     681.728    1062.561
  H       32.474     678.332    1062.401
  H       39.815     681.196    1062.832
  H       34.586     673.616    1063.251
  H       37.013     679.380    1064.860
  H       34.893     677.910    1061.978
  H       33.524     678.851    1064.297
  H       34.959     680.809    1064.475
  H       34.722     681.019    1061.403
  H       37.102     681.910    1061.737
  H       37.960     673.356    1066.186
  H       38.612     674.960    1066.377
  H       35.805     682.987    1062.257
  P       33.249     682.775    1064.723
  C       32.584     680.801    1066.239
  O       32.285     682.140    1065.831
  O       32.891     684.172    1064.321
  O       34.694     682.701    1065.425
  H       34.904     683.580    1065.790
  H       32.212     680.101    1065.464
  H       32.083     680.593    1067.161
  H       33.652     680.666    1066.363
  H       39.050     685.504    1062.221
  H       38.392     684.062    1061.486
  H       40.024     684.058    1062.111

 3  4  5  6  7  8  9  10  11  12  22  25  29  30  31  32 0
 6-311+G(2d,p)
 ****
 33  36  37 0
 6-311+G(2d,p)
 ****
 1  2  13  14  15  16  17  18  19  20  21  23  24  26 0
 3-21G
 ****
 27  28  34  35  38  39  40  41  42  43  44  45  46  47  48 0
 3-21G
 ****


