%nproc=1
%NoSave
%Mem=1900MB
#P OB98/GEN NMR

erre ene a

0 1
  C      366.599    -249.720    -184.691
  O      367.443    -250.739    -184.191
  H      365.616    -249.777    -184.212
  H      367.046    -248.749    -184.462
  H      366.494    -249.815    -185.776
  P      366.976    -252.249    -184.452
  C      368.675    -253.117    -186.211
  O      367.380    -252.588    -185.968
  C      368.618    -254.157    -187.327
  O      367.690    -255.204    -186.980
  C      368.149    -253.620    -188.673
  O      369.190    -252.953    -189.369
  C      367.753    -254.911    -189.372
  O      368.931    -255.577    -189.867
  C      367.134    -255.719    -188.221
  N      362.803    -258.259    -187.235
  C      364.102    -258.617    -187.132
  N      365.200    -257.879    -187.391
  C      364.855    -256.641    -187.782
  C      363.579    -256.123    -187.915
  C      362.514    -256.995    -187.630
  N      361.186    -256.636    -187.808
  N      363.621    -254.815    -188.355
  C      364.906    -254.555    -188.504
  N      365.690    -255.623    -188.163
  O      365.378    -252.124    -184.500
  O      367.423    -253.239    -183.428
  H      369.513    -255.720    -189.098
  H      365.013    -252.357    -183.628
  H      364.283    -259.633    -186.798
  H      365.310    -253.615    -188.853
  H      367.396    -256.782    -188.272
  H      367.088    -254.756    -190.226
  H      367.262    -252.985    -188.569
  H      369.615    -254.608    -187.416
  H      369.054    -253.586    -185.296
  H      360.581    -257.423    -188.026
  H      361.050    -255.791    -188.343
  H      369.341    -252.295    -186.492
  P      368.791    -252.059    -190.642
  C      368.800    -249.791    -189.401
  O      368.020    -250.771    -190.070
  O      367.629    -252.926    -191.325
  O      369.895    -251.785    -191.599
  H      367.864    -253.112    -192.255
  H      368.166    -248.993    -189.074
  H      369.540    -249.406    -190.071
  H      369.281    -250.235    -188.555

 6  7  8  9  10  11  12  13  14  15  25  28  32  33  34  35 0
 6-311+G(2d,p)
 ****
 36  39  40 0
 6-311+G(2d,p)
 ****
 1  2  3  4  5  16  17  18  19  20  21  22  23  24 0
 3-21G
 ****
 26  27  29  30  31  37  38  41  42  43  44  45  46  47  48 0
 3-21G
 ****


