%nproc=1
%NoSave
%Mem=1900MB
#P OB98/GEN NMR

erre ene a

0 1
  C     -605.476     343.018     541.289
  O     -604.923     344.109     540.520
  P     -603.385     343.988     540.077
  C     -603.654     346.575     539.770
  O     -603.044     345.370     539.346
  C     -603.342     347.700     538.775
  O     -601.941     348.066     538.846
  C     -603.606     347.344     537.336
  O     -604.992     347.324     537.031
  C     -602.810     348.424     536.617
  O     -603.566     349.653     536.573
  C     -601.582     348.599     537.547
  N     -600.382     347.963     537.024
  C     -599.671     348.699     536.090
  O     -600.019     349.816     535.698
  N     -598.524     348.109     535.615
  C     -598.054     346.871     535.929
  O     -597.036     346.396     535.481
  C     -598.890     346.113     536.888
  C     -599.992     346.689     537.386
  O     -603.496     342.912     538.897
  O     -602.482     343.601     541.192
  H     -604.315     343.005     538.371
  H     -604.224     349.552     535.854
  H     -597.982     348.641     534.942
  H     -598.569     345.117     537.150
  H     -600.622     346.133     538.090
  H     -601.372     349.655     537.708
  H     -602.564     348.158     535.584
  H     -603.169     346.355     537.106
  H     -603.948     348.574     539.069
  H     -603.286     346.854     540.762
  H     -604.730     346.407     539.862
  P     -605.670     345.891     536.783
  C     -607.559     345.838     534.961
  O     -607.162     346.175     536.293
  O     -605.869     345.372     538.286
  O     -604.868     344.979     535.916
  H     -606.203     346.069     538.890
  H     -608.646     345.779     534.930
  H     -607.132     344.891     534.661
  H     -607.235     346.631     534.285
  H     -606.501     343.225     541.516
  H     -604.924     342.907     542.199
  H     -605.412     342.113     540.721

 3  4  5  6  7  8  9  10  11  12  13  24  28  29  30  31  32 0
 6-311+G(2d,p)
 ****
 33  34 0
 6-311+G(2d,p)
 ****
 1  2  14  15  16  17  18  19  20  21  22  23  25  26  27 0
 3-21G
 ****
 35  36  37  38  39  40  41  42  43  44  45 0
 3-21G
 ****


