%nproc=1
%NoSave
%Mem=1900MB
#P OB98/GEN NMR

erre ene a

0 1
  C     1100.889    -442.564    -776.488
  O     1101.744    -443.234    -775.565
  P     1102.403    -442.369    -774.370
  C     1101.065    -443.451    -772.417
  O     1101.353    -442.277    -773.167
  C     1099.858    -443.206    -771.496
  O     1098.646    -442.968    -772.248
  C     1099.561    -444.391    -770.584
  O     1100.373    -444.385    -769.419
  C     1098.099    -444.091    -770.202
  O     1098.072    -443.087    -769.164
  C     1097.528    -443.513    -771.502
  N     1093.256    -446.175    -772.070
  C     1093.597    -445.217    -771.126
  N     1092.645    -444.934    -770.200
  N     1094.746    -444.604    -771.101
  C     1095.587    -445.004    -772.093
  C     1095.372    -445.937    -773.068
  C     1094.099    -446.623    -773.089
  O     1093.733    -447.473    -773.881
  N     1096.460    -446.070    -773.903
  C     1097.341    -445.195    -773.416
  N     1096.856    -444.528    -772.320
  O     1102.399    -440.883    -774.982
  O     1103.793    -442.799    -773.989
  H     1097.135    -442.948    -768.955
  H     1103.121    -440.364    -774.595
  H     1092.358    -446.624    -772.044
  H     1098.319    -445.013    -773.851
  H     1096.810    -442.702    -771.333
  H     1097.588    -444.976    -769.810
  H     1091.723    -445.325    -770.211
  H     1099.615    -445.341    -771.117
  H     1092.863    -444.182    -769.516
  H     1100.086    -442.317    -770.878
  H     1101.943    -443.724    -771.821
  H     1100.885    -444.288    -773.111
  P     1101.537    -445.487    -769.313
  C     1103.429    -443.699    -769.585
  O     1102.806    -444.874    -770.101
  O     1101.016    -446.655    -770.274
  O     1101.807    -445.983    -767.943
  H     1101.303    -447.520    -769.963
  H     1104.361    -443.542    -770.148
  H     1103.683    -443.852    -768.538
  H     1102.770    -442.851    -769.701
  H     1100.532    -443.263    -777.216
  H     1101.434    -441.785    -776.979
  H     1100.058    -442.141    -775.962

 3  4  5  6  7  8  9  10  11  12  23  26  30  31 0
 6-311+G(2d,p)
 ****
 33  35  36  37  38 0
 6-311+G(2d,p)
 ****
 1  2  13  14  15  16  17  18  19  20  21  22  24  25 0
 3-21G
 ****
 27  28  29  32  34  39  40  41  42  43  44  45  46  47  48  49 0
 3-21G
 ****


