%nproc=1
%NoSave
%Mem=1900MB
#P OB98/GEN NMR

erre ene a

0 1
  C     -192.644     425.416     398.706
  O     -192.933     424.021     398.803
  P     -193.279     423.382     400.226
  C     -195.819     423.718     400.563
  O     -194.776     422.816     400.209
  C     -196.685     423.112     401.674
  O     -197.700     424.038     402.121
  C     -197.459     421.879     401.212
  O     -196.705     420.716     400.943
  C     -198.551     421.777     402.261
  O     -198.088     421.107     403.439
  C     -198.841     423.266     402.565
  N     -200.076     423.741     401.938
  C     -201.191     423.808     402.770
  O     -201.181     423.455     403.943
  N     -202.339     424.265     402.181
  C     -202.492     424.617     400.869
  O     -203.550     424.997     400.394
  C     -201.284     424.500     400.038
  C     -200.148     424.073     400.603
  O     -192.927     424.213     401.414
  O     -192.409     422.027     400.227
  H     -198.860     420.964     404.012
  H     -192.020     421.920     401.117
  H     -203.163     424.328     402.768
  H     -201.365     424.766     398.997
  H     -199.244     423.980     400.005
  H     -198.929     423.424     403.643
  H     -199.413     421.212     401.892
  H     -197.954     422.138     400.264
  H     -196.044     422.882     402.529
  H     -196.429     423.946     399.687
  H     -195.374     424.668     400.886
  P     -195.862     420.507     399.593
  C     -193.327     420.266     400.073
  O     -194.571     419.620     399.938
  O     -195.663     421.698     398.721
  O     -196.792     419.448     398.810
  H     -196.707     419.621     397.852
  H     -192.566     419.514     400.289
  H     -193.357     420.978     400.907
  H     -193.059     420.787     399.150
  H     -192.437     425.667     397.687
  H     -191.792     425.647     399.311
  H     -193.487     425.979     399.048

 3  4  5  6  7  8  9  10  11  12  13  23  28  29  30  31  32 0
 6-311+G(2d,p)
 ****
 33  34 0
 6-311+G(2d,p)
 ****
 1  2  14  15  16  17  18  19  20  21  22  24  25  26  27 0
 3-21G
 ****
 35  36  37  38  39  40  41  42  43  44  45 0
 3-21G
 ****


