%nproc=1
%NoSave
%Mem=1900MB
#P OB98/GEN NMR

erre ene a

0 1
  C     -226.705     188.380     183.405
  O     -225.296     188.325     183.293
  H     -227.139     188.241     182.411
  H     -227.018     189.352     183.796
  H     -227.059     187.580     184.061
  P     -224.462     188.543     184.645
  C     -222.913     186.496     184.415
  O     -224.031     187.060     185.090
  C     -223.191     185.037     184.047
  O     -224.332     184.996     183.153
  C     -222.020     184.354     183.338
  O     -221.926     183.002     183.781
  C     -222.423     184.384     181.874
  O     -221.806     183.345     181.119
  C     -223.943     184.279     181.969
  N     -226.675     183.166     177.808
  C     -226.285     182.415     178.860
  N     -225.569     182.797     179.939
  C     -225.297     184.114     179.886
  C     -225.627     185.004     178.880
  C     -226.346     184.480     177.793
  N     -226.726     185.231     176.705
  N     -225.133     186.262     179.168
  C     -224.529     186.135     180.334
  N     -224.588     184.850     180.800
  O     -225.136     189.356     185.699
  O     -223.090     189.147     184.086
  H     -220.844     183.524     181.077
  H     -222.781     188.663     183.297
  H     -226.578     181.370     178.828
  H     -224.026     186.932     180.872
  H     -224.289     183.242     182.059
  H     -222.128     185.343     181.431
  H     -221.071     184.866     183.508
  H     -223.479     184.495     184.955
  H     -222.022     186.549     185.049
  H     -227.253     184.779     175.975
  H     -226.506     186.216     176.683
  H     -222.733     187.087     183.511
  P     -220.902     182.654     184.964
  C     -222.361     181.512     186.759
  O     -221.695     182.704     186.359
  O     -219.602     183.385     184.938
  O     -220.669     181.079     184.766
  H     -219.735     180.869     184.963
  H     -222.848     181.674     187.698
  H     -221.647     180.721     186.859
  H     -223.088     181.245     186.021

 6  7  8  9  10  11  12  13  14  15  25  28  32  33  34  35 0
 6-311+G(2d,p)
 ****
 36  39  40 0
 6-311+G(2d,p)
 ****
 1  2  3  4  5  16  17  18  19  20  21  22  23  24 0
 3-21G
 ****
 26  27  29  30  31  37  38  41  42  43  44  45  46  47 0
 3-21G
 ****
 48 0
 3-21G
 ****


