%nproc=1
%NoSave
%Mem=1900MB
#P OB98/GEN NMR

erre ene a

0 1
  C      -16.016      23.500      -7.022
  O      -17.014      23.240      -7.983
  H      -15.417      22.596      -6.888
  H      -16.483      23.758      -6.067
  H      -15.358      24.314      -7.339
  P      -17.740      24.476      -8.693
  C      -19.582      24.612      -6.890
  O      -18.531      25.296      -7.561
  C      -20.443      25.563      -6.058
  O      -19.630      26.243      -5.077
  C      -21.085      26.660      -6.909
  O      -22.294      26.299      -7.551
  C      -21.320      27.757      -5.876
  O      -22.566      27.555      -5.188
  C      -20.142      27.578      -4.916
  N      -18.811      32.502      -5.202
  C      -20.065      31.949      -5.030
  N      -21.099      32.817      -4.987
  N      -20.278      30.663      -4.929
  C      -19.161      29.914      -5.086
  C      -17.868      30.347      -5.276
  C      -17.635      31.776      -5.331
  O      -16.546      32.317      -5.490
  N      -16.995      29.292      -5.389
  C      -17.768      28.226      -5.343
  N      -19.088      28.551      -5.134
  O      -18.934      23.790      -9.517
  O      -16.870      25.301      -9.592
  H      -23.279      27.511      -5.850
  H      -19.172      24.345     -10.281
  H      -18.702      33.500      -5.245
  H      -17.423      27.202      -5.429
  H      -20.458      27.674      -3.870
  H      -21.374      28.746      -6.341
  H      -20.997      33.802      -5.177
  H      -20.372      27.034      -7.651
  H      -22.040      32.445      -5.129
  H      -21.195      24.983      -5.510
  H      -19.111      23.871      -6.241
  H      -20.199      24.067      -7.610
  P      -22.611      26.839      -9.024
  C      -23.855      28.893      -8.021
  O      -22.860      28.417      -8.901
  O      -24.068      26.244      -9.313
  O      -21.629      26.433     -10.068
  H      -23.999      25.417      -9.826
  H      -23.887      29.962      -8.063
  H      -23.627      28.582      -7.023
  H      -24.806      28.496      -8.310

 6  7  8  9  10  11  12  13  14  15  26  29  33  34 0
 6-311+G(2d,p)
 ****
 36  38  39  40  41 0
 6-311+G(2d,p)
 ****
 1  2  3  4  5  16  17  18  19  20  21  22  23  24  25 0
 3-21G
 ****
 27  28  30  31  32  35  37  42  43  44  45  46  47 0
 3-21G
 ****
 48  49 0
 3-21G
 ****


