%nproc=1
%NoSave
%Mem=1900MB
#P OB98/GEN NMR

erre ene a

0 1
  C      118.600     -99.924     -82.220
  O      118.224     -98.582     -81.989
  H      117.748    -100.588     -82.056
  H      118.929    -100.025     -83.258
  H      119.424    -100.205     -81.560
  P      117.670     -98.228     -80.527
  C      119.636     -96.879     -79.510
  O      118.342     -96.832     -80.095
  C      119.540     -96.589     -78.014
  O      120.810     -96.926     -77.401
  C      119.216     -95.125     -77.665
  O      118.023     -95.058     -76.877
  C      120.386     -94.673     -76.804
  O      119.992     -93.860     -75.701
  C      121.012     -95.984     -76.341
  N      124.666     -96.930     -72.918
  C      123.466     -97.515     -73.130
  N      122.586     -97.287     -74.124
  C      123.060     -96.364     -74.977
  C      124.273     -95.699     -74.907
  C      125.091     -96.000     -73.805
  N      126.287     -95.364     -73.560
  N      124.406     -94.811     -75.960
  C      123.275     -94.910     -76.629
  N      122.424     -95.821     -76.061
  O      118.399     -99.301     -79.587
  O      116.186     -98.286     -80.381
  H      119.212     -94.290     -75.301
  H      117.745     -99.715     -78.994
  H      123.171     -98.260     -72.397
  H      123.003     -94.320     -77.494
  H      120.526     -96.377     -75.439
  H      121.083     -94.098     -77.426
  H      119.112     -94.492     -78.552
  H      118.786     -97.257     -77.582
  H      120.277     -96.123     -79.977
  H      126.751     -95.559     -72.688
  H      126.556     -94.595     -74.156
  H      120.073     -97.866     -79.688
  P      116.955     -93.924     -77.285
  C      115.150     -95.346     -78.510
  O      115.512     -94.626     -77.339
  O      117.291     -93.654     -78.827
  O      117.046     -92.683     -76.465
  H      117.032     -92.746     -79.071
  H      114.167     -95.751     -78.390
  H      115.847     -96.142     -78.669
  H      115.164     -94.687     -79.353

 6  7  8  9  10  11  12  13  14  15  25  28  32  33  34  35 0
 6-311+G(2d,p)
 ****
 36  39  40 0
 6-311+G(2d,p)
 ****
 1  2  3  4  5  16  17  18  19  20  21  22  23  24 0
 3-21G
 ****
 26  27  29  30  31  37  38  41  42  43  44  45  46  47  48 0
 3-21G
 ****


