%nproc=1
%NoSave
%Mem=1900MB
#P OB98/GEN NMR

erre ene a

0 1
  C       91.482    -422.429     -33.475
  O       91.281    -421.771     -34.709
  H       92.281    -421.919     -32.929
  H       91.788    -423.461     -33.661
  H       90.573    -422.412     -32.869
  P       89.918    -422.085     -35.496
  C       88.907    -419.786     -36.146
  O       89.707    -420.887     -36.546
  C       88.688    -418.830     -37.320
  O       89.955    -418.169     -37.623
  C       88.203    -419.517     -38.607
  O       87.281    -418.643     -39.276
  C       89.467    -419.602     -39.442
  O       89.190    -419.707     -40.834
  C       90.158    -418.306     -39.040
  N       93.411    -416.920     -42.604
  C       92.083    -416.596     -42.427
  N       91.507    -415.831     -43.378
  N       91.370    -416.991     -41.404
  C       92.076    -417.736     -40.515
  C       93.390    -418.128     -40.578
  C       94.163    -417.700     -41.724
  O       95.338    -417.973     -41.946
  N       93.712    -418.932     -39.509
  C       92.587    -419.037     -38.820
  N       91.567    -418.326     -39.393
  O       88.802    -421.810     -34.381
  O       89.810    -423.459     -36.065
  H       90.034    -419.615     -41.319
  H       88.563    -422.646     -33.940
  H       93.909    -416.604     -43.418
  H       92.459    -419.624     -37.923
  H       89.721    -417.425     -39.534
  H       90.058    -420.475     -39.138
  H       91.996    -415.462     -44.178
  H       87.732    -420.489     -38.439
  H       90.542    -415.549     -43.243
  H       87.985    -418.046     -37.009
  H       89.415    -419.247     -35.338
  H       87.947    -420.153     -35.773
  P       85.732    -419.046     -39.287
  C       84.780    -416.650     -38.912
  O       84.875    -417.782     -39.773
  O       85.375    -419.153     -37.727
  O       85.443    -420.325     -40.000
  H       84.714    -419.859     -37.587
  H       84.178    -415.897     -39.377
  H       85.759    -416.260     -38.726
  H       84.331    -416.943     -37.986

 6  7  8  9  10  11  12  13  14  15  26  29  33  34 0
 6-311+G(2d,p)
 ****
 36  38  39  40  41 0
 6-311+G(2d,p)
 ****
 1  2  3  4  5  16  17  18  19  20  21  22  23  24  25 0
 3-21G
 ****
 27  28  30  31  32  35  37  42  43  44  45  46  47 0
 3-21G
 ****
 48  49 0
 3-21G
 ****


