%nproc=1
%NoSave
%Mem=1900MB
#P OB98/GEN NMR

erre ene a

0 1
  C     -196.422    -179.067    -605.429
  O     -196.548    -180.321    -606.071
  H     -195.440    -179.016    -604.952
  H     -197.194    -178.955    -604.660
  H     -196.505    -178.263    -606.163
  P     -197.943    -180.615    -606.806
  C     -197.565    -183.133    -606.401
  O     -197.788    -182.114    -607.368
  C     -196.122    -183.639    -606.483
  O     -195.313    -182.881    -605.548
  C     -195.975    -185.122    -606.135
  O     -194.991    -185.711    -606.982
  C     -195.468    -185.100    -604.702
  O     -194.735    -186.279    -604.368
  C     -194.637    -183.818    -604.684
  N     -193.515    -184.972    -599.846
  C     -193.416    -185.680    -600.988
  N     -193.721    -185.289    -602.247
  C     -194.128    -184.003    -602.256
  C     -194.285    -183.160    -601.170
  C     -193.963    -183.694    -599.908
  N     -194.083    -182.986    -598.736
  N     -194.766    -181.931    -601.583
  C     -194.885    -182.031    -602.893
  N     -194.528    -183.274    -603.343
  O     -198.373    -179.599    -607.808
  O     -198.930    -180.814    -605.563
  H     -195.325    -187.051    -604.495
  H     -198.522    -181.369    -604.870
  H     -193.046    -186.698    -600.885
  H     -195.237    -181.245    -603.553
  H     -193.619    -183.967    -605.059
  H     -196.315    -185.022    -604.010
  H     -196.916    -185.666    -606.221
  H     -195.729    -183.426    -607.485
  H     -198.253    -183.968    -606.562
  H     -193.818    -183.441    -597.877
  H     -194.400    -182.027    -598.768
  H     -197.757    -182.708    -605.411
  P     -195.290    -187.159    -607.602
  C     -193.048    -188.343    -607.116
  O     -193.900    -187.795    -608.110
  O     -196.421    -187.239    -608.570
  O     -195.599    -188.038    -606.292
  H     -196.311    -188.677    -606.502
  H     -192.164    -188.731    -607.578
  H     -193.558    -189.132    -606.604
  H     -192.779    -187.579    -606.416

 6  7  8  9  10  11  12  13  14  15  25  28  32  33  34  35 0
 6-311+G(2d,p)
 ****
 36  39  40 0
 6-311+G(2d,p)
 ****
 1  2  3  4  5  16  17  18  19  20  21  22  23  24 0
 3-21G
 ****
 26  27  29  30  31  37  38  41  42  43  44  45  46  47 0
 3-21G
 ****
 48 0
 3-21G
 ****


