%nproc=1
%NoSave
%Mem=1900MB
#P OB98/GEN NMR

erre ene a

0 1
  C     -899.370    -749.497    -843.018
  O     -898.010    -749.458    -843.432
  H     -899.470    -750.142    -842.159
  H     -900.000    -749.881    -843.835
  H     -899.710    -748.496    -842.743
  P     -897.670    -748.572    -844.717
  C     -895.310    -748.179    -843.752
  O     -896.070    -748.680    -844.852
  C     -893.820    -748.403    -843.998
  O     -893.470    -749.783    -843.744
  C     -893.390    -748.085    -845.456
  O     -892.110    -747.449    -845.451
  C     -893.290    -749.451    -846.101
  O     -892.400    -749.463    -847.217
  C     -892.840    -750.319    -844.908
  N     -891.900    -754.522    -847.661
  C     -891.280    -753.324    -847.602
  N     -891.590    -752.265    -846.817
  C     -892.620    -752.541    -846.021
  C     -893.350    -753.728    -845.959
  C     -892.940    -754.733    -846.828
  N     -893.560    -755.969    -846.929
  N     -894.360    -753.623    -845.025
  C     -894.240    -752.406    -844.518
  N     -893.210    -751.710    -845.095
  O     -898.220    -747.185    -844.716
  O     -898.170    -749.515    -845.898
  H     -892.200    -750.398    -847.443
  H     -897.920    -750.438    -845.766
  H     -890.420    -753.173    -848.281
  H     -894.870    -751.964    -843.729
  H     -891.760    -750.295    -844.753
  H     -894.270    -749.771    -846.456
  H     -894.120    -747.445    -845.979
  H     -893.240    -747.785    -843.285
  H     -895.600    -748.710    -842.834
  H     -893.220    -756.652    -847.574
  H     -894.350    -756.162    -846.300
  H     -895.530    -747.124    -843.630
  P     -891.970    -746.005    -846.106
  C     -889.970    -745.608    -844.495
  O     -890.500    -745.431    -845.803
  O     -893.090    -745.036    -845.841
  O     -891.880    -746.356    -847.677
  H     -892.370    -745.651    -848.174
  H     -888.992    -745.177    -844.445
  H     -889.911    -746.653    -844.272
  H     -890.608    -745.127    -843.783

 6  7  8  9  10  11  12  13  14  15  25  28  32  33  34  35 0
 6-311+G(2d,p)
 ****
 36  39  40 0
 6-311+G(2d,p)
 ****
 1  2  3  4  5  16  17  18  19  20  21  22  23  24 0
 3-21G
 ****
 26  27  29  30  31  37  38  41  42  43  44  45  46  47 0
 3-21G
 ****
 48 0
 3-21G
 ****


