%nproc=1
%NoSave
%Mem=1900MB
#P OB98/GEN NMR

erre ene a

0 1
  C     -183.887     -66.130     122.414
  O     -182.818     -66.285     121.503
  H     -184.414     -65.202     122.180
  H     -183.504     -66.065     123.435
  H     -184.593     -66.961     122.333
  P     -182.005     -67.666     121.495
  C     -183.309     -68.646     119.498
  O     -182.982     -68.776     120.875
  C     -184.248     -69.774     119.078
  O     -184.846     -69.474     117.799
  C     -183.558     -71.123     118.907
  O     -183.282     -71.712     120.163
  C     -184.591     -71.861     118.066
  O     -185.657     -72.360     118.887
  C     -185.092     -70.731     117.133
  N     -184.469     -70.757     115.811
  C     -185.322     -70.956     114.728
  O     -186.532     -71.143     114.852
  N     -184.729     -70.950     113.494
  C     -183.392     -70.854     113.248
  O     -182.904     -70.909     112.123
  C     -182.535     -70.681     114.430
  C     -183.103     -70.640     115.639
  O     -181.360     -68.049     122.786
  O     -180.920     -67.455     120.336
  H     -186.146     -71.580     119.216
  H     -180.058     -67.227     120.729
  H     -185.328     -71.104     112.699
  H     -181.468     -70.606     114.277
  H     -182.491     -70.518     116.525
  H     -186.180     -70.808     117.000
  H     -184.170     -72.720     117.541
  H     -182.643     -71.010     118.317
  H     -185.054     -69.841     119.819
  H     -182.385     -68.702     118.910
  H     -183.777     -67.671     119.335
  P     -182.359     -73.015     120.269
  C     -180.441     -71.853     121.504
  O     -180.831     -72.524     120.313
  O     -182.641     -74.079     119.261
  O     -182.612     -73.547     121.755
  H     -183.173     -74.350     121.730
  H     -179.412     -71.569     121.433
  H     -180.574     -72.506     122.341
  H     -181.044     -70.979     121.635

 6  7  8  9  10  11  12  13  14  15  16  26  31  32  33  34  35 0
 6-311+G(2d,p)
 ****
 36  37 0
 6-311+G(2d,p)
 ****
 1  2  3  4  5  17  18  19  20  21  22  23  24  25 0
 3-21G
 ****
 27  28  29  30  38  39  40  41  42  43  44  45 0
 3-21G
 ****


