%nproc=1
%NoSave
%Mem=1900MB
#P OB98/GEN NMR

erre ene a

0 1
  C      -21.002     103.053     -32.006
  O      -20.945     102.541     -33.321
  H      -21.199     102.229     -31.313
  H      -21.816     103.780     -31.922
  H      -20.055     103.525     -31.726
  P      -20.405     103.485     -34.500
  C      -22.735     104.584     -34.645
  O      -21.338     104.794     -34.504
  C      -23.371     105.703     -35.477
  O      -23.189     106.969     -34.768
  C      -22.748     105.871     -36.882
  O      -23.791     106.324     -37.756
  C      -21.737     106.973     -36.622
  O      -21.255     107.534     -37.813
  C      -22.562     107.876     -35.699
  N      -21.767     108.885     -35.007
  C      -21.445     110.041     -35.715
  O      -21.806     110.262     -36.868
  N      -20.666     110.949     -35.044
  C      -20.187     110.816     -33.773
  O      -19.512     111.673     -33.212
  C      -20.539     109.560     -33.086
  C      -21.301     108.665     -33.724
  O      -20.230     102.829     -35.828
  O      -19.014     104.042     -33.929
  H      -18.277     103.512     -34.291
  H      -20.582     108.221     -37.622
  H      -20.422     111.793     -35.542
  H      -20.158     109.412     -32.085
  H      -21.580     107.728     -33.252
  H      -23.365     108.370     -36.257
  H      -20.867     106.570     -36.090
  H      -22.317     104.944     -37.270
  H      -24.452     105.527     -35.541
  H      -23.182     104.566     -33.644
  H      -22.909     103.614     -35.129
  P      -24.357     105.449     -38.981
  C      -22.888     106.779     -40.632
  O      -23.309     105.494     -40.196
  O      -25.749     105.818     -39.386
  O      -24.302     103.927     -38.480
  H      -25.068     103.441     -38.841
  H      -22.195     106.672     -41.441
  H      -22.414     107.293     -39.822
  H      -23.738     107.340     -40.962

 6  7  8  9  10  11  12  13  14  15  16  27  31  32  33  34  35 0
 6-311+G(2d,p)
 ****
 36  37 0
 6-311+G(2d,p)
 ****
 1  2  3  4  5  17  18  19  20  21  22  23  24  25 0
 3-21G
 ****
 26  28  29  30  38  39  40  41  42  43  44  45 0
 3-21G
 ****


