%nproc=1
%NoSave
%Mem=1900MB
#P OB98/GEN NMR

erre ene a

0 1
  C     1131.788    -301.186      24.594
  O     1131.996    -302.431      25.240
  H     1132.232    -300.399      25.211
  H     1130.722    -300.988      24.485
  H     1132.274    -301.170      23.611
  P     1131.594    -303.770      24.459
  C     1130.448    -304.893      26.481
  O     1130.276    -304.356      25.178
  C     1129.091    -305.083      27.145
  O     1128.489    -303.788      27.424
  C     1128.073    -305.826      26.287
  O     1128.350    -307.218      26.249
  C     1126.775    -305.436      26.967
  O     1126.534    -306.253      28.121
  C     1127.055    -303.973      27.386
  N     1126.425    -303.008      26.482
  C     1125.039    -302.941      26.512
  O     1124.346    -303.640      27.268
  N     1124.452    -302.101      25.610
  C     1125.107    -301.447      24.589
  O     1124.525    -300.902      23.661
  C     1126.569    -301.503      24.643
  C     1127.158    -302.283      25.557
  O     1132.699    -304.766      24.267
  O     1131.024    -303.238      23.053
  H     1131.710    -303.365      22.371
  H     1127.333    -306.141      28.689
  H     1123.443    -302.083      25.599
  H     1127.125    -300.935      23.906
  H     1128.241    -302.376      25.589
  H     1126.682    -303.785      28.402
  H     1125.922    -305.544      26.296
  H     1128.081    -305.420      25.268
  H     1129.234    -305.590      28.114
  H     1131.053    -304.199      27.082
  H     1130.977    -305.849      26.417
  P     1127.809    -308.113      25.033
  C     1126.349    -309.507      26.629
  O     1126.380    -308.717      25.450
  O     1128.793    -309.128      24.513
  O     1127.441    -307.047      23.898
  H     1127.860    -307.318      23.066
  H     1125.351    -309.850      26.802
  H     1126.673    -308.918      27.462
  H     1127.000    -310.348      26.512

 6  7  8  9  10  11  12  13  14  15  16  27  31  32  33  34  35 0
 6-311+G(2d,p)
 ****
 36  37 0
 6-311+G(2d,p)
 ****
 1  2  3  4  5  17  18  19  20  21  22  23  24  25 0
 3-21G
 ****
 26  28  29  30  38  39  40  41  42  43  44  45 0
 3-21G
 ****


