%nproc=1
%NoSave
%Mem=1900MB
#P OB98/GEN NMR

erre ene a

0 1
  C     -392.619       1.468     600.587
  O     -392.824       2.565     599.717
  H     -393.120       0.592     600.169
  H     -393.046       1.686     601.571
  H     -391.553       1.254     600.683
  P     -392.146       3.954     600.151
  C     -393.601       4.703     602.182
  O     -392.400       4.097     601.730
  C     -393.439       5.196     603.627
  O     -393.526       4.049     604.525
  C     -392.086       5.877     603.903
  O     -392.282       6.839     604.954
  C     -391.256       4.711     604.426
  O     -390.075       5.165     605.045
  C     -392.304       4.029     605.302
  N     -389.563       1.108     608.478
  C     -389.742       2.446     608.415
  N     -390.497       3.148     607.551
  C     -391.126       2.331     606.691
  C     -391.051       0.945     606.641
  C     -390.216       0.325     607.583
  N     -390.029      -1.034     607.645
  N     -391.838       0.450     605.612
  C     -392.382       1.519     605.060
  N     -391.974       2.675     605.670
  O     -393.119       5.053     599.510
  O     -390.728       4.142     599.721
  H     -390.272       5.600     605.901
  H     -392.767       5.340     598.645
  H     -389.202       3.025     609.164
  H     -393.063       1.515     604.216
  H     -392.489       4.591     606.227
  H     -390.945       4.055     603.611
  H     -391.661       6.373     603.030
  H     -394.277       5.859     603.874
  H     -394.406       3.958     602.133
  H     -393.852       5.548     601.536
  H     -389.401      -1.399     608.347
  H     -390.495      -1.626     606.977
  P     -392.766       8.321     604.574
  C     -390.408       9.294     603.987
  O     -391.711       8.957     603.542
  O     -392.437       9.137     605.917
  O     -394.210       8.463     604.210
  H     -393.048       9.892     606.000
  H     -389.847       9.702     603.172
  H     -389.918       8.416     604.353
  H     -390.475      10.019     604.771

 6  7  8  9  10  11  12  13  14  15  25  28  32  33  34  35 0
 6-311+G(2d,p)
 ****
 36  37  40 0
 6-311+G(2d,p)
 ****
 1  2  3  4  5  16  17  18  19  20  21  22  23  24 0
 3-21G
 ****
 26  27  29  30  31  38  39 41  42  43  44  45  46  47  48 0
 3-21G
 ****


