%nproc=1
%NoSave
%Mem=1900MB
#P OB98/GEN NMR

erre ene a

0 1
  C       98.663     364.610     427.408
  O       99.071     363.605     426.507
  P       99.383     363.863     424.963
  C       97.360     362.569     423.926
  O       98.764     362.647     424.111
  C       96.922     361.124     423.650
  O       95.471     361.088     423.544
  C       97.486     360.612     422.308
  O       97.955     359.270     422.348
  C       96.367     360.933     421.327
  O       96.426     360.183     420.123
  C       95.118     360.712     422.185
  N       91.571     361.417     418.619
  C       92.467     360.373     418.762
  N       92.538     359.506     417.726
  N       93.235     360.216     419.811
  C       93.133     361.226     420.709
  C       92.282     362.303     420.675
  C       91.415     362.450     419.523
  O       90.686     363.419     419.307
  N       92.505     363.163     421.730
  C       93.505     362.612     422.382
  N       93.942     361.451     421.785
  O      100.756     364.332     424.621
  O       98.356     365.066     424.622
  H       95.770     360.559     419.512
  H       98.794     365.639     423.958
  H       91.065     361.531     417.744
  H       93.970     363.031     423.276
  H       94.829     359.658     422.203
  H       96.460     361.992     421.045
  H       92.070     359.685     416.848
  H       98.383     361.187     422.025
  H       93.348     358.887     417.695
  H       97.208     360.484     424.489
  H       97.119     363.207     423.074
  H       96.833     362.971     424.808
  P       99.011     358.554     421.391
  C       97.518     356.654     420.525
  O       98.654     357.001     421.302
  O      100.384     358.555     422.212
  O       99.209     359.222     420.062
  H      101.132     358.738     421.615
  H       97.222     355.630     420.768
  H       97.770     356.704     419.467
  H       96.679     357.327     420.742
  H       98.519     364.182     428.378
  H       97.745     365.042     427.069
  H       99.416     365.369     427.461

 3  4  5  6  7  8  9  10  11  12  23  26  30  31 0
 6-311+G(2d,p)
 ****
 33  35  36  37  38 0
 6-311+G(2d,p)
 ****
 1  2  13  14  15  16  17  18  19  20  21  22  24  25 0
 3-21G
 ****
 27  28  29  32  34  39  40  41  42  43  44  45  46  47  48  49 0
 3-21G
 ****


