%nproc=1
%NoSave
%Mem=1900MB
#P OB98/GEN NMR

erre ene a

0 1
  C     -175.870    -433.896     210.225
  O     -176.903    -434.832     210.454
  H     -175.168    -434.323     209.505
  H     -175.336    -433.698     211.157
  H     -176.264    -432.962     209.817
  P     -178.217    -434.358     211.242
  C     -179.663    -434.077     209.124
  O     -179.468    -434.793     210.336
  C     -181.135    -433.694     208.946
  O     -181.249    -432.780     207.818
  C     -182.061    -434.887     208.668
  O     -183.346    -434.572     209.221
  C     -182.126    -434.878     207.151
  O     -183.221    -435.627     206.674
  C     -182.164    -433.372     206.876
  N     -181.818    -433.048     205.490
  C     -182.809    -433.251     204.541
  O     -183.923    -433.712     204.810
  N     -182.474    -432.952     203.250
  C     -181.247    -432.541     202.820
  O     -180.991    -432.315     201.643
  C     -180.222    -432.387     203.865
  C     -180.549    -432.641     205.132
  O     -178.230    -432.930     211.679
  O     -178.320    -435.365     212.481
  H     -184.057    -435.304     207.078
  H     -178.741    -434.919     213.241
  H     -183.187    -433.083     202.548
  H     -179.235    -432.069     203.556
  H     -179.817    -432.535     205.929
  H     -183.165    -432.970     207.078
  H     -181.220    -435.321     206.724
  H     -181.688    -435.830     209.075
  H     -181.462    -433.142     209.834
  H     -179.346    -434.723     208.296
  H     -179.040    -433.177     209.129
  P     -183.897    -435.279     210.549
  C     -183.917    -433.376     212.290
  O     -184.700    -434.193     211.421
  O     -182.861    -436.035     211.320
  O     -185.051    -436.268     210.038
  H     -185.132    -437.022     210.649
  H     -184.557    -432.697     212.814
  H     -183.205    -432.823     211.714
  H     -183.402    -433.996     212.994

 6  7  8  9  10  11  12  13  14  15  16  26  31  32  33  34  35 0
 6-311+G(2d,p)
 ****
 36  37 0
 6-311+G(2d,p)
 ****
 1  2  3  4  5  17  18  19  20  21  22  23  24  25 0
 3-21G
 ****
 27  28  29  30  38  39  40  41  42  43  44  45 0
 3-21G
 ****


