%nproc=1
%NoSave
%Mem=1900MB
#P OB98/GEN NMR

erre ene a

0 1
  C     -333.682    -342.778      -9.219
  O     -334.225    -342.172      -8.045
  P     -334.912    -340.732      -7.988
  C     -334.098    -338.251      -7.651
  O     -333.770    -339.630      -7.792
  C     -332.877    -337.362      -7.934
  O     -331.938    -337.493      -6.818
  C     -332.127    -337.777      -9.208
  O     -331.705    -336.670     -10.001
  C     -331.044    -338.705      -8.674
  O     -329.959    -338.876      -9.575
  C     -330.711    -338.066      -7.327
  N     -327.362    -341.833      -6.489
  C     -327.730    -341.231      -7.680
  N     -327.146    -341.713      -8.803
  N     -328.610    -340.272      -7.767
  C     -329.176    -339.945      -6.586
  C     -328.904    -340.474      -5.340
  C     -327.894    -341.506      -5.248
  O     -327.517    -342.051      -4.217
  N     -329.675    -339.881      -4.367
  C     -330.423    -339.013      -5.023
  N     -330.151    -339.008      -6.378
  O     -336.114    -340.620      -7.110
  O     -335.395    -340.484      -9.510
  H     -330.325    -339.203     -10.425
  H     -336.207    -339.939      -9.451
  H     -326.662    -342.555      -6.478
  H     -331.154    -338.353      -4.577
  H     -329.973    -337.265      -7.425
  H     -331.500    -339.695      -8.530
  H     -326.555    -342.534      -8.821
  H     -332.786    -338.342      -9.880
  H     -327.577    -341.427      -9.684
  H     -333.208    -336.318      -7.978
  H     -334.423    -338.124      -6.612
  H     -334.937    -337.990      -8.294
  P     -332.029    -336.363     -11.539
  C     -331.182    -337.056     -13.853
  O     -331.016    -337.191     -12.455
  O     -331.558    -334.846     -11.759
  O     -333.478    -336.517     -11.907
  H     -332.330    -334.293     -12.013
  H     -330.622    -337.857     -14.358
  H     -330.781    -336.092     -14.177
  H     -332.235    -337.130     -14.133
  H     -333.285    -343.741      -8.973
  H     -332.901    -342.160      -9.611
  H     -334.453    -342.887      -9.953

 3  4  5  6  7  8  9  10  11  12  23  26  30  31 0
 6-311+G(2d,p)
 ****
 33  35  36  37  38 0
 6-311+G(2d,p)
 ****
 1  2  13  14  15  16  17  18  19  20  21  22  24  25 0
 3-21G
 ****
 27  28  29  32  34  39  40  41  42  43  44  45  46  47  48  49 0
 3-21G
 ****


