%nproc=1
%NoSave
%Mem=1900MB
#P OB98/GEN NMR

erre ene a

0 1
  C     -775.238     326.216     106.287
  O     -776.220     326.416     107.288
  H     -775.279     327.049     105.585
  H     -775.447     325.288     105.750
  H     -774.233     326.174     106.719
  P     -776.180     325.503     108.605
  C     -778.111     323.899     107.984
  O     -777.684     324.968     108.821
  C     -779.463     323.351     108.457
  O     -779.303     322.780     109.783
  C     -780.567     324.411     108.538
  O     -781.818     323.753     108.258
  C     -780.505     324.812     109.998
  O     -781.673     325.483     110.412
  C     -780.232     323.457     110.656
  N     -779.710     323.593     112.018
  C     -780.111     322.633     112.942
  O     -780.895     321.718     112.659
  N     -779.630     322.765     114.200
  C     -778.838     323.794     114.653
  O     -778.455     323.883     115.815
  C     -778.482     324.798     113.647
  C     -778.921     324.663     112.395
  O     -775.565     326.129     109.810
  O     -775.404     324.179     108.148
  H     -781.852     326.252     109.830
  H     -774.927     323.798     108.910
  H     -779.902     322.072     114.879
  H     -777.859     325.629     113.968
  H     -778.663     325.385     111.628
  H     -781.147     322.859     110.701
  H     -779.663     325.498     110.169
  H     -780.415     325.247     107.852
  H     -779.751     322.528     107.794
  H     -777.350     323.108     108.036
  H     -778.188     324.256     106.958
  P     -782.259     323.364     106.769
  C     -783.945     325.313     106.712
  O     -783.751     323.913     106.516
  O     -782.074     321.916     106.437
  O     -781.357     324.282     105.820
  H     -781.216     323.839     104.963
  H     -784.967     325.562     106.517
  H     -783.311     325.858     106.044
  H     -783.702     325.569     107.722

 6  7  8  9  10  11  12  13  14  15  16  26  31  32  33  34  35 0
 6-311+G(2d,p)
 ****
 36  37 0
 6-311+G(2d,p)
 ****
 1  2  3  4  5  17  18  19  20  21  22  23  24  25 0
 3-21G
 ****
 27  28  29  30  38  39  40  41  42  43  44  45 0
 3-21G
 ****


