%nproc=1
%NoSave
%Mem=1900MB
#P OB98/GEN NMR

erre ene a

0 1
  C      -60.054    -587.927      82.587
  O      -58.997    -588.724      82.099
  H      -59.705    -587.298      83.408
  H      -60.414    -587.281      81.778
  H      -60.882    -588.559      82.924
  P      -58.323    -589.734      83.151
  C      -58.700    -591.797      81.632
  O      -57.754    -590.979      82.304
  C      -57.987    -592.788      80.724
  O      -57.500    -592.064      79.556
  C      -56.786    -593.499      81.374
  O      -56.868    -594.912      81.187
  C      -55.581    -592.974      80.608
  O      -54.552    -593.944      80.462
  C      -56.191    -592.569      79.269
  N      -52.880    -591.811      75.462
  C      -53.780    -592.789      75.683
  N      -54.707    -592.885      76.657
  C      -54.654    -591.806      77.455
  C      -53.809    -590.714      77.358
  C      -52.866    -590.756      76.307
  N      -51.908    -589.784      76.129
  N      -54.048    -589.801      78.370
  C      -54.991    -590.355      79.101
  N      -55.385    -591.571      78.596
  O      -59.583    -590.349      83.928
  O      -57.356    -589.095      84.089
  H      -54.874    -594.612      79.825
  H      -59.512    -590.118      84.872
  H      -53.762    -593.615      74.969
  H      -55.402    -589.943      80.015
  H      -56.301    -593.431      78.599
  H      -55.173    -592.102      81.136
  H      -56.703    -593.275      82.449
  H      -58.711    -593.523      80.358
  H      -59.367    -591.166      81.031
  H      -51.201    -589.949      75.425
  H      -51.815    -589.053      76.819
  H      -59.304    -592.329      82.378
  P      -57.455    -595.763      82.422
  C      -59.503    -596.778      81.186
  O      -58.252    -597.022      81.827
  O      -58.603    -594.811      83.008
  O      -56.431    -596.087      83.464
  H      -58.438    -594.632      83.952
  H      -59.914    -597.704      80.842
  H      -59.355    -596.123      80.353
  H      -60.178    -596.324      81.882

 6  7  8  9  10  11  12  13  14  15  25  28  32  33  34  35 0
 6-311+G(2d,p)
 ****
 36  39  40 0
 6-311+G(2d,p)
 ****
 1  2  3  4  5  16  17  18  19  20  21  22  23  24 0
 3-21G
 ****
 26  27  29  30  31  37  38  41  42  43  44  45  46  47  48 0
 3-21G
 ****


