%nproc=1
%NoSave
%Mem=1900MB
#P OB98/GEN NMR

erre ene a

0 1
  C     -891.840     124.525    1299.975
  O     -892.610     125.178    1300.963
  H     -892.310     123.560    1299.750
  H     -890.830     124.347    1300.349
  H     -891.800     125.124    1299.060
  P     -892.150     126.658    1301.378
  C     -894.200     127.822    1300.301
  O     -892.790     127.655    1300.290
  C     -894.780     127.589    1298.909
  O     -894.500     126.215    1298.499
  C     -896.310     127.786    1298.814
  O     -896.600     128.352    1297.523
  C     -896.840     126.369    1298.851
  O     -898.140     126.258    1298.295
  C     -895.750     125.648    1298.050
  N     -898.250     121.461    1296.813
  C     -898.430     122.767    1296.410
  N     -899.430     122.990    1295.528
  N     -897.690     123.772    1296.815
  C     -896.700     123.382    1297.668
  C     -896.420     122.140    1298.153
  C     -897.270     121.039    1297.712
  O     -897.160     119.868    1298.054
  N     -895.360     122.162    1299.021
  C     -894.990     123.433    1299.054
  N     -895.780     124.211    1298.249
  O     -890.590     126.653    1301.016
  O     -892.380     127.029    1302.802
  H     -898.770     126.706    1298.903
  H     -890.060     126.410    1301.795
  H     -898.840     120.726    1296.476
  H     -894.180     123.840    1299.635
  H     -895.840     125.826    1296.971
  H     -896.870     126.001    1299.885
  H     -900.000     122.275    1295.132
  H     -896.730     128.430    1299.594
  H     -899.540     123.945    1295.179
  H     -894.250     128.246    1298.200
  H     -894.440     128.838    1300.625
  H     -894.650     127.110    1301.015
  P     -896.570     129.938    1297.368
  C     -894.850     130.069    1295.415
  O     -895.140     130.349    1296.778
  O     -896.490     130.443    1298.883
  O     -897.750     130.511    1296.650
  H     -896.890     131.328    1298.959
  H     -893.861     130.405    1295.184
  H     -895.554     130.576    1294.789
  H     -894.917     129.015    1295.245

 6  7  8  9  10  11  12  13  14  15  26  29  33  34 0
 6-311+G(2d,p)
 ****
 36  38  39  40  41 0
 6-311+G(2d,p)
 ****
 1  2  3  4  5  16  17  18  19  20  21  22  23  24  25 0
 3-21G
 ****
 27  28  30  31  32  35  37  42  43  44  45  46  47 0
 3-21G
 ****
 48  49 0
 3-21G
 ****


