%nproc=1
%NoSave
%Mem=1900MB
#P OB98/GEN NMR

erre ene a

0 1
  C     -218.401     666.398     353.900
  O     -218.679     667.761     354.234
  P     -217.824     668.386     355.449
  C     -217.048     670.753     356.191
  O     -217.813     669.984     355.276
  C     -216.267     671.853     355.469
  O     -215.118     671.329     354.741
  C     -217.097     672.611     354.439
  O     -217.904     673.581     355.099
  C     -216.014     673.235     353.553
  O     -215.517     674.458     354.121
  C     -214.927     672.145     353.558
  N     -214.745     672.036     348.486
  C     -214.913     673.116     349.350
  N     -215.025     674.329     348.772
  N     -214.968     672.992     350.647
  C     -214.835     671.712     351.082
  C     -214.633     670.587     350.331
  C     -214.580     670.711     348.890
  O     -214.413     669.808     348.090
  N     -214.491     669.465     351.140
  C     -214.727     669.923     352.358
  N     -214.877     671.294     352.381
  O     -216.325     667.949     355.119
  O     -218.258     667.898     356.789
  H     -215.219     674.281     355.030
  H     -216.033     667.272     355.760
  H     -214.725     672.183     347.494
  H     -214.773     669.320     353.239
  H     -213.920     672.588     353.661
  H     -216.408     673.476     352.564
  H     -214.993     674.493     347.762
  H     -217.712     671.904     353.866
  H     -215.146     675.135     349.381
  H     -215.883     672.549     356.232
  H     -216.361     670.101     356.742
  H     -217.724     671.189     356.940
  P     -219.494     673.382     355.043
  C     -221.472     673.825     356.669
  O     -220.101     673.984     356.401
  O     -219.663     671.790     355.220
  O     -220.146     673.851     353.779
  H     -220.336     671.463     354.583
  H     -221.628     673.791     357.760
  H     -221.874     672.896     356.225
  H     -222.028     674.688     356.268
  H     -219.025     666.096     353.085
  H     -218.596     665.776     354.748
  H     -217.374     666.303     353.617

 3  4  5  6  7  8  9  10  11  12  23  26  30  31 0
 6-311+G(2d,p)
 ****
 33  35  36  37  38 0
 6-311+G(2d,p)
 ****
 1  2  13  14  15  16  17  18  19  20  21  22  24  25 0
 3-21G
 ****
 27  28  29  32  34  39  40  41  42  43  44  45  46  47  48  49 0
 3-21G
 ****


