%nproc=1
%NoSave
%Mem=1900MB
#P OB98/GEN NMR

erre ene a

0 1
  C       22.699      82.462     155.328
  O       22.805      81.404     156.288
  P       21.530      81.191     157.249
  C       20.278      79.548     155.676
  O       20.270      80.810     156.325
  C       18.864      78.970     155.593
  O       17.970      79.817     154.844
  C       18.804      77.603     154.928
  O       19.197      76.594     155.845
  C       17.337      77.520     154.525
  O       16.520      77.056     155.620
  C       16.994      78.973     154.175
  N       14.259      78.839     149.903
  C       13.990      78.294     151.151
  N       12.816      77.643     151.273
  N       14.798      78.386     152.170
  C       15.938      79.063     151.891
  C       16.305      79.663     150.708
  C       15.400      79.558     149.587
  O       15.585      80.037     148.476
  N       17.514      80.313     150.824
  C       17.929      79.988     152.040
  N       16.984      79.288     152.755
  O       21.200      82.680     157.761
  O       21.798      80.269     158.390
  H       16.425      76.083     155.555
  H       21.423      82.760     158.707
  H       13.603      78.731     149.151
  H       18.885      80.262     152.466
  H       16.009      79.263     154.556
  H       17.183      76.803     153.708
  H       12.138      77.541     150.535
  H       19.441      77.596     154.035
  H       12.586      77.252     152.189
  H       18.485      78.905     156.620
  H       20.931      78.851     156.220
  H       20.715      79.672     154.675
  P       20.735      76.158     155.872
  C       21.206      76.811     158.349
  O       21.467      77.053     156.971
  O       21.296      76.712     154.472
  O       20.959      74.683     155.993
  H       21.862      76.036     154.053
  H       22.091      77.081     158.931
  H       20.970      75.756     158.527
  H       20.374      77.432     158.661
  H       23.598      82.510     154.749
  H       22.552      83.392     155.837
  H       21.868      82.274     154.681

 3  4  5  6  7  8  9  10  11  12  23  26  30  31 0
 6-311+G(2d,p)
 ****
 33  35  36  37  38 0
 6-311+G(2d,p)
 ****
 1  2  13  14  15  16  17  18  19  20  21  22  24  25 0
 3-21G
 ****
 27  28  29  32  34  39  40  41  42  43  44  45  46  47  48  49 0
 3-21G
 ****


