%nproc=1
%NoSave
%Mem=1900MB
#P OB98/GEN NMR

erre ene a

0 1
  C       16.825      17.860     -73.085
  O       17.722      17.149     -73.911
  H       16.347      17.156     -72.397
  H       16.050      18.331     -73.694
  H       17.348      18.620     -72.498
  P       18.750      17.971     -74.826
  C       16.996      18.219     -76.700
  O       17.865      18.890     -75.800
  C       16.793      19.046     -77.974
  O       16.098      20.281     -77.619
  C       18.107      19.446     -78.679
  O       17.835      19.505     -80.085
  C       18.332      20.834     -78.107
  O       19.300      21.547     -78.831
  C       16.897      21.366     -78.135
  N       16.710      22.583     -77.356
  C       16.939      23.795     -77.998
  O       17.264      23.895     -79.179
  N       16.791      24.916     -77.223
  C       16.451      24.938     -75.902
  O       16.310      25.974     -75.262
  C       16.250      23.624     -75.271
  C       16.386      22.524     -76.015
  O       19.803      17.162     -75.507
  O       19.388      19.036     -73.813
  H       20.250      18.707     -73.494
  H       18.974      21.745     -79.736
  H       16.953      25.804     -77.673
  H       16.001      23.607     -74.219
  H       16.248      21.537     -75.583
  H       16.570      21.544     -79.165
  H       18.699      20.764     -77.078
  H       18.922      18.743     -78.491
  H       16.131      18.494     -78.654
  H       16.034      18.067     -76.200
  H       17.423      17.242     -76.954
  P       18.041      18.257     -81.075
  C       20.493      18.760     -81.700
  O       19.593      17.843     -81.094
  O       17.472      18.476     -82.440
  O       17.322      17.019     -80.359
  H       16.914      16.448     -81.037
  H       21.488      18.370     -81.648
  H       20.449      19.696     -81.184
  H       20.219      18.904     -82.724

 6  7  8  9  10  11  12  13  14  15  16  27  31  32  33  34  35 0
 6-311+G(2d,p)
 ****
 36  37 0
 6-311+G(2d,p)
 ****
 1  2  3  4  5  17  18  19  20  21  22  23  24  25 0
 3-21G
 ****
 26  28  29  30  38  39  40  41  42  43  44  45 0
 3-21G
 ****


