%nproc=1
%NoSave
%Mem=1900MB
#P OB98/GEN NMR

erre ene a

0 1
  C       25.918      91.331      58.281
  O       26.134      90.066      58.881
  P       25.947      89.930      60.465
  C       28.498      89.466      60.654
  O       27.377      90.182      61.147
  C       28.891      88.353      61.628
  O       29.819      87.440      60.969
  C       29.575      88.855      62.907
  O       29.190      87.979      63.976
  C       31.046      88.656      62.592
  O       31.867      88.624      63.748
  C       30.979      87.335      61.818
  N       32.191      87.067      61.046
  C       33.264      86.496      61.720
  O       33.252      86.210      62.917
  N       34.403      86.315      60.982
  C       34.600      86.720      59.695
  O       35.683      86.634      59.128
  C       33.430      87.317      59.033
  C       32.298      87.460      59.726
  O       25.698      88.363      60.671
  O       24.840      90.751      61.035
  H       31.435      88.040      64.398
  H       24.746      88.182      60.784
  H       35.188      85.892      61.453
  H       33.545      87.631      58.003
  H       31.426      87.916      59.268
  H       30.796      86.503      62.509
  H       31.395      89.476      61.953
  H       29.331      89.892      63.157
  H       27.992      87.775      61.879
  H       29.339      90.151      60.537
  H       28.264      89.050      59.668
  P       28.408      88.617      65.226
  C       30.575      88.940      66.652
  O       29.463      89.529      66.012
  O       28.240      87.327      66.162
  O       27.112      89.262      64.858
  H       29.047      86.788      66.205
  H       30.942      88.071      66.101
  H       30.291      88.634      67.661
  H       31.377      89.679      66.719
  H       26.081      91.258      57.226
  H       26.597      92.044      58.698
  H       24.912      91.646      58.465

 3  4  5  6  7  8  9  10  11  12  13  23  28  29  30  31  32 0
 6-311+G(2d,p)
 ****
 33  34 0
 6-311+G(2d,p)
 ****
 1  2  14  15  16  17  18  19  20  21  22  24  25  26 0
 3-21G
 ****
 27  35  36  37  38  39  40  41  42  43  44  45 0
 3-21G
 ****


