%nproc=1
%NoSave
%Mem=1900MB
#P OB98/GEN NMR

erre ene a

0 1
  C     -505.638    1190.011    -242.740
  O     -506.705    1189.084    -242.731
  H     -505.369    1190.273    -243.770
  H     -505.954    1190.916    -242.219
  H     -504.765    1189.589    -242.224
  P     -506.470    1187.723    -243.545
  C     -508.805    1187.364    -244.615
  O     -507.893    1186.978    -243.602
  C     -510.112    1186.596    -244.480
  O     -509.872    1185.171    -244.574
  C     -510.831    1186.782    -243.148
  O     -511.547    1188.009    -243.097
  C     -511.767    1185.586    -243.159
  O     -512.932    1185.875    -243.968
  C     -510.921    1184.501    -243.827
  N     -510.993    1179.710    -241.980
  C     -511.751    1180.327    -242.926
  N     -511.689    1181.600    -243.352
  C     -510.699    1182.261    -242.726
  C     -509.845    1181.770    -241.749
  C     -510.027    1180.432    -241.368
  N     -509.260    1179.811    -240.404
  N     -508.949    1182.739    -241.343
  C     -509.249    1183.799    -242.064
  N     -510.307    1183.566    -242.904
  O     -505.619    1186.820    -242.535
  O     -505.779    1187.877    -244.863
  H     -513.379    1186.640    -243.542
  H     -504.978    1186.286    -243.044
  H     -512.516    1179.696    -243.387
  H     -508.743    1184.753    -242.008
  H     -511.503    1183.922    -244.561
  H     -512.133    1185.310    -242.159
  H     -510.125    1186.689    -242.297
  H     -510.769    1186.883    -245.312
  H     -508.371    1187.159    -245.600
  H     -509.305    1178.811    -240.318
  H     -508.530    1180.364    -239.951
  H     -508.988    1188.438    -244.534
  P     -511.032    1189.127    -242.057
  C     -512.691    1189.153    -240.056
  O     -512.356    1189.682    -241.340
  O     -510.596    1190.331    -243.014
  O     -509.920    1188.697    -241.163
  H     -509.925    1190.886    -242.570
  H     -513.591    1189.613    -239.705
  H     -511.896    1189.354    -239.369
  H     -512.837    1188.096    -240.133

 6  7  8  9  10  11  12  13  14  15  25  28  32  33  34  35 0
 6-311+G(2d,p)
 ****
 36  39  40 0
 6-311+G(2d,p)
 ****
 1  2  3  4  5  16  17  18  19  20  21  22  23  24 0
 3-21G
 ****
 26  27  29  30  31  37  38  41  42  43  44  45  46  47  48 0
 3-21G
 ****


