%nproc=1
%NoSave
%Mem=1900MB
#P OB98/GEN NMR

erre ene a

0 1
  C     -235.090     264.687     -46.546
  O     -234.811     265.878     -47.256
  H     -234.145     264.228     -46.248
  H     -235.631     263.993     -47.193
  H     -235.677     264.891     -45.648
  P     -236.003     266.902     -47.558
  C     -235.192     268.667     -45.859
  O     -235.445     268.368     -47.226
  C     -234.719     270.113     -45.689
  O     -233.371     270.235     -46.239
  C     -235.601     271.147     -46.406
  O     -235.546     272.360     -45.647
  C     -234.873     271.312     -47.729
  O     -235.269     272.498     -48.390
  C     -233.418     271.254     -47.254
  N     -232.486     270.980     -48.356
  C     -232.358     271.973     -49.325
  O     -232.999     273.020     -49.298
  N     -231.491     271.701     -50.348
  C     -230.802     270.536     -50.523
  O     -230.075     270.332     -51.479
  C     -231.018     269.503     -49.496
  C     -231.831     269.768     -48.470
  O     -237.311     266.573     -46.914
  O     -236.111     266.924     -49.156
  H     -234.686     272.671     -49.152
  H     -237.031     267.101     -49.424
  H     -231.381     272.413     -51.047
  H     -230.499     268.567     -49.616
  H     -232.007     269.029     -47.696
  H     -233.123     272.208     -46.790
  H     -235.089     270.476     -48.396
  H     -236.638     270.820     -46.522
  H     -234.639     270.333     -44.615
  H     -234.418     267.977     -45.497
  H     -236.105     268.506     -45.277
  P     -236.848     273.237     -45.325
  C     -238.185     271.707     -43.737
  O     -237.371     272.868     -43.854
  O     -237.909     273.166     -46.383
  O     -236.303     274.737     -45.176
  H     -237.002     275.369     -45.413
  H     -238.467     271.571     -42.714
  H     -237.637     270.852     -44.073
  H     -239.064     271.826     -44.336

 6  7  8  9  10  11  12  13  14  15  16  26  31  32  33  34  35 0
 6-311+G(2d,p)
 ****
 36  37 0
 6-311+G(2d,p)
 ****
 1  2  3  4  5  17  18  19  20  21  22  23  24  25 0
 3-21G
 ****
 27  28  29  30  38  39  40  41  42  43  44  45 0
 3-21G
 ****


