%nproc=1
%NoSave
%Mem=1900MB
#P OB98/GEN NMR

erre ene a

0 1
  C      -69.543    -208.481    -310.474
  O      -69.103    -207.330    -309.781
  H      -68.705    -209.172    -310.576
  H      -69.893    -208.202    -311.471
  H      -70.347    -208.979    -309.923
  P      -70.221    -206.282    -309.311
  C      -70.871    -207.378    -307.045
  O      -70.219    -206.302    -307.705
  C      -71.196    -206.983    -305.604
  O      -72.051    -208.011    -305.025
  C      -69.964    -206.849    -304.699
  O      -70.195    -205.781    -303.775
  C      -69.951    -208.165    -303.942
  O      -69.254    -208.111    -302.704
  C      -71.452    -208.421    -303.778
  N      -71.755    -209.821    -303.484
  C      -72.578    -210.081    -302.393
  O      -73.135    -209.221    -301.712
  N      -72.753    -211.409    -302.090
  C      -72.187    -212.465    -302.739
  O      -72.369    -213.630    -302.406
  C      -71.321    -212.125    -303.877
  C      -71.147    -210.839    -304.191
  O      -71.589    -207.021    -309.690
  O      -70.121    -204.920    -309.915
  H      -71.860    -206.793    -310.598
  H      -68.308    -207.972    -302.907
  H      -73.346    -211.613    -301.302
  H      -70.845    -212.938    -304.408
  H      -70.496    -210.553    -305.011
  H      -71.863    -207.781    -302.991
  H      -69.486    -208.945    -304.558
  H      -69.028    -206.678    -305.240
  H      -71.778    -206.054    -305.615
  H      -70.212    -208.250    -307.033
  H      -71.788    -207.632    -307.587
  P      -69.281    -204.469    -303.923
  C      -70.331    -203.588    -306.158
  O      -70.164    -203.422    -304.759
  O      -68.178    -204.977    -304.966
  O      -68.745    -203.978    -302.623
  H      -68.536    -205.595    -305.627
  H      -70.946    -202.800    -306.540
  H      -70.798    -204.531    -306.352
  H      -69.375    -203.558    -306.637

 6  7  8  9  10  11  12  13  14  15  16  27  31  32  33  34  35 0
 6-311+G(2d,p)
 ****
 36  37 0
 6-311+G(2d,p)
 ****
 1  2  3  4  5  17  18  19  20  21  22  23  24  25 0
 3-21G
 ****
 26  28  29  30  38  39  40  41  42  43  44  45 0
 3-21G
 ****


