%nproc=1
%NoSave
%Mem=1900MB
#P OB98/GEN NMR

erre ene a

0 1
  C     -154.669     152.311     198.315
  O     -154.296     152.593     196.982
  H     -155.398     151.498     198.307
  H     -155.130     153.190     198.776
  H     -153.800     151.995     198.899
  P     -153.227     153.762     196.717
  C     -153.957     155.549     194.989
  O     -154.127     155.029     196.300
  C     -154.512     154.573     193.956
  O     -155.772     154.009     194.390
  C     -154.820     155.184     192.593
  O     -153.666     155.475     191.823
  C     -155.653     154.067     191.988
  O     -154.790     152.990     191.579
  C     -156.526     153.662     193.195
  N     -157.829     154.329     193.200
  C     -158.952     153.516     192.990
  O     -158.824     152.309     192.805
  N     -160.196     154.102     192.960
  C     -160.308     155.387     193.101
  N     -161.567     155.914     193.058
  C     -159.153     156.282     193.303
  C     -157.959     155.694     193.343
  O     -152.111     153.427     195.780
  O     -152.727     154.188     198.177
  H     -154.320     153.293     190.779
  H     -152.056     154.904     198.068
  H     -159.297     157.352     193.386
  H     -157.059     156.286     193.485
  H     -156.685     152.576     193.214
  H     -156.217     154.380     191.107
  H     -155.455     156.074     192.699
  H     -153.800     153.742     193.873
  H     -162.338     155.275     192.915
  H     -152.890     155.727     194.826
  H     -161.740     156.910     193.081
  H     -154.495     156.494     194.891
  P     -153.865     156.443     190.554
  C     -153.292     155.241     188.302
  O     -154.248     155.488     189.322
  O     -152.374     156.921     190.228
  O     -154.805     157.590     190.762
  H     -152.205     157.808     190.602
  H     -153.715     154.588     187.567
  H     -152.425     154.783     188.729
  H     -153.016     156.166     187.841

 6  7  8  9  10  11  12  13  14  15  16  26  30  31  32  33  35 0
 6-311+G(2d,p)
 ****
 37  38 0
 6-311+G(2d,p)
 ****
 1  2  3  4  5  17  18  19  20  21  22  23  24  25 0
 3-21G
 ****
 27  28  29  34  36  39  40  41  42  43  44  45  46 0
 3-21G
 ****


