%nproc=1
%NoSave
%Mem=1900MB
#P OB98/GEN NMR

erre ene a

0 1
  C      -90.913     758.025     646.497
  O      -90.521     759.148     645.731
  H      -90.280     757.178     646.222
  H      -91.954     757.772     646.293
  H      -90.780     758.231     647.568
  P      -91.316     760.515     646.004
  C      -90.861     763.001     645.384
  O      -90.311     761.713     645.620
  C      -89.807     764.062     645.683
  O      -89.549     764.119     647.099
  C      -88.457     763.794     645.037
  O      -88.435     764.138     643.655
  C      -87.548     764.662     645.895
  O      -87.545     766.024     645.446
  C      -88.180     764.555     647.280
  N      -83.599     763.384     649.206
  C      -84.020     764.411     648.453
  N      -85.267     764.666     647.985
  C      -86.121     763.720     648.410
  C      -85.840     762.616     649.192
  C      -84.508     762.447     649.605
  N      -84.078     761.387     650.354
  N      -86.980     761.857     649.381
  C      -87.935     762.496     648.746
  N      -87.464     763.629     648.136
  O      -91.391     760.582     647.602
  O      -92.666     760.597     645.379
  H      -87.123     766.550     646.155
  H      -92.270     760.277     647.903
  H      -83.255     765.131     648.162
  H      -88.970     762.170     648.675
  H      -88.213     765.518     647.804
  H      -86.514     764.296     645.852
  H      -88.172     762.735     645.176
  H      -90.195     765.050     645.366
  H      -91.721     763.156     646.037
  H      -91.192     763.059     644.339
  H      -83.094     761.308     650.556
  H      -84.722     760.638     650.556
  P      -87.278     763.502     642.751
  C      -87.418     762.945     640.201
  O      -87.985     762.799     641.492
  O      -86.756     762.257     643.624
  O      -86.171     764.433     642.400
  H      -85.786     762.148     643.492
  H      -88.014     762.415     639.488
  H      -86.425     762.548     640.201
  H      -87.387     763.982     639.940

 6  7  8  9  10  11  12  13  14  15  25  28  32  33  34  35 0
 6-311+G(2d,p)
 ****
 36  37  40 0
 6-311+G(2d,p)
 ****
 1  2  3  4  5  16  17  18  19  20  21  22  23  24 0
 3-21G
 ****
 26  27  29  30  31  38  39 41  42  43  44  45  46  47  48 0
 3-21G
 ****


