%nproc=1
%NoSave
%Mem=1900MB
#P OB98/GEN NMR

erre ene a

0 1
  C     -347.675    -159.684    -302.073
  O     -348.772    -160.538    -301.779
  P     -349.894    -160.107    -300.716
  C     -349.185    -162.125    -299.289
  O     -349.397    -160.719    -299.320
  C     -348.915    -162.587    -297.861
  O     -347.645    -162.033    -297.436
  C     -349.920    -162.123    -296.807
  O     -351.078    -162.939    -296.701
  C     -349.089    -162.263    -295.541
  O     -349.044    -163.643    -295.138
  C     -347.706    -161.801    -296.007
  N     -344.246    -158.380    -294.428
  C     -344.173    -159.718    -294.628
  N     -345.145    -160.558    -295.034
  C     -346.278    -159.889    -295.279
  C     -346.508    -158.531    -295.128
  C     -345.421    -157.759    -294.679
  N     -345.495    -156.393    -294.499
  N     -347.812    -158.211    -295.461
  C     -348.350    -159.357    -295.818
  N     -347.466    -160.396    -295.735
  O     -351.289    -160.448    -301.115
  O     -349.671    -158.536    -300.521
  H     -349.955    -163.898    -294.891
  H     -350.456    -158.135    -300.103
  H     -343.199    -160.166    -294.436
  H     -349.374    -159.482    -296.141
  H     -346.892    -162.378    -295.546
  H     -349.500    -161.698    -294.695
  H     -350.190    -161.070    -296.948
  H     -348.823    -163.678    -297.860
  H     -348.311    -162.353    -299.914
  H     -344.635    -155.904    -294.304
  H     -346.315    -155.911    -294.841
  H     -350.052    -162.639    -299.711
  P     -352.313    -162.355    -295.850
  C     -352.549    -164.376    -294.206
  O     -352.194    -163.025    -294.402
  O     -353.638    -162.489    -296.514
  O     -351.875    -160.837    -295.594
  H     -351.105    -160.722    -295.012
  H     -352.247    -164.683    -293.201
  H     -352.047    -165.023    -294.931
  H     -353.631    -164.496    -294.297
  H     -347.045    -160.151    -302.801
  H     -347.114    -159.503    -301.180
  H     -348.040    -158.755    -302.459

 3  4  5  6  7  8  9  10  11  12  22  25  29  30  31  32 0
 6-311+G(2d,p)
 ****
 33  36  37 0
 6-311+G(2d,p)
 ****
 1  2  13  14  15  16  17  18  19  20  21  23  24  26 0
 3-21G
 ****
 27  28  34  35  38  39  40  41  42  43  44  45  46  47  48 0
 3-21G
 ****


