%nproc=1
%NoSave
%Mem=1900MB
#P OB98/GEN NMR

erre ene a

0 1
  C      271.824    -234.282    -170.508
  O      270.503    -234.069    -170.058
  H      271.809    -234.415    -171.593
  H      272.238    -235.182    -170.048
  H      272.451    -233.417    -170.266
  P      270.301    -233.851    -168.481
  C      270.537    -235.402    -166.414
  O      270.346    -235.319    -167.820
  C      270.169    -236.798    -165.908
  O      268.744    -237.016    -166.115
  C      270.919    -237.935    -166.622
  O      271.226    -238.955    -165.667
  C      269.885    -238.467    -167.598
  O      270.150    -239.810    -167.984
  C      268.607    -238.284    -166.784
  N      263.639    -239.093    -166.724
  C      264.559    -239.089    -165.696
  N      264.090    -239.343    -164.456
  N      265.837    -238.858    -165.866
  C      266.164    -238.593    -167.154
  C      265.352    -238.579    -168.263
  C      263.945    -238.858    -168.062
  O      263.088    -238.900    -168.939
  N      266.073    -238.304    -169.399
  C      267.319    -238.152    -168.976
  N      267.418    -238.314    -167.619
  O      268.757    -233.440    -168.355
  O      271.206    -232.850    -167.847
  H      270.097    -240.371    -167.179
  H      268.617    -232.850    -167.590
  H      262.668    -239.287    -166.542
  H      268.172    -237.926    -169.602
  H      268.480    -239.062    -166.022
  H      269.865    -237.847    -168.502
  H      263.114    -239.497    -164.243
  H      271.835    -237.610    -167.119
  H      264.742    -239.331    -163.681
  H      270.339    -236.834    -164.826
  H      269.902    -234.660    -165.922
  H      271.586    -235.189    -166.182
  P      272.725    -239.520    -165.639
  C      274.034    -241.535    -166.622
  O      272.783    -240.870    -166.508
  O      272.886    -240.040    -164.129
  O      273.764    -238.497    -165.968
  H      273.477    -239.441    -163.634
  H      273.919    -242.411    -167.225
  H      274.379    -241.815    -165.649
  H      274.746    -240.879    -167.078

 6  7  8  9  10  11  12  13  14  15  26  29  33  34 0
 6-311+G(2d,p)
 ****
 36  38  39  40  41 0
 6-311+G(2d,p)
 ****
 1  2  3  4  5  16  17  18  19  20  21  22  23  24  25 0
 3-21G
 ****
 27  28  30  31  32  35  37  42  43  44  45  46  47 0
 3-21G
 ****
 48  49 0
 3-21G
 ****


