%nproc=1
%NoSave
%Mem=1900MB
#P OB98/GEN NMR

erre ene a

0 1
  C      842.934     545.614     -39.430
  O      844.152     544.911     -39.141
  P      845.523     545.162     -39.958
  C      845.729     542.775     -40.923
  O      845.593     544.157     -41.211
  C      845.896     541.934     -42.197
  O      846.232     540.560     -41.849
  C      844.659     541.895     -43.102
  O      845.134     541.942     -44.459
  C      844.065     540.535     -42.760
  O      843.149     540.047     -43.732
  C      845.349     539.714     -42.627
  N      845.195     538.390     -41.996
  C      844.560     537.395     -42.736
  O      844.087     537.622     -43.844
  N      844.452     536.138     -42.172
  C      844.921     535.915     -40.987
  N      844.796     534.639     -40.497
  C      845.584     536.945     -40.169
  C      845.695     538.148     -40.731
  O      846.744     545.112     -39.092
  O      845.368     546.606     -40.629
  H      846.231     547.057     -40.630
  H      842.359     540.605     -43.721
  H      845.982     536.716     -39.187
  H      846.197     538.953     -40.214
  H      845.809     539.584     -43.619
  H      843.525     540.611     -41.809
  H      843.977     542.734     -42.945
  H      846.767     542.332     -42.746
  H      844.340     533.961     -41.090
  H      844.828     542.437     -40.392
  H      845.136     534.355     -39.588
  H      846.583     542.627     -40.248
  P      844.814     543.212     -45.379
  C      842.671     542.293     -46.551
  O      843.228     543.229     -45.658
  O      845.381     542.737     -46.807
  O      845.448     544.501     -44.959
  H      845.623     543.530     -47.322
  H      841.750     541.879     -46.119
  H      843.361     541.468     -46.783
  H      842.409     542.814     -47.485
  H      842.165     545.284     -38.764
  H      842.640     545.418     -40.440
  H      843.090     546.665     -39.302

 3  4  5  6  7  8  9  10  11  12  13  24  27  28  29  30  32 0
 6-311+G(2d,p)
 ****
 34  35 0
 6-311+G(2d,p)
 ****
 1  2  14  15  16  17  18  19  20  21  22  23  25  26 0
 3-21G
 ****
 31  33  36  37  38  39  40  41  42  43  44  45  46 0
 3-21G
 ****


