%nproc=1
%NoSave
%Mem=1900MB
#P OB98/GEN NMR

erre ene a

0 1
  C     -199.225     -67.910     211.918
  O     -199.289     -67.104     210.753
  P     -200.379     -65.935     210.613
  C     -198.965     -63.966     211.469
  O     -200.010     -64.885     211.766
  C     -199.529     -62.555     211.338
  O     -200.484     -62.545     210.250
  C     -200.295     -62.026     212.550
  O     -199.480     -61.455     213.562
  C     -201.131     -60.932     211.900
  O     -200.321     -59.761     211.690
  C     -201.507     -61.564     210.558
  N     -206.549     -60.872     210.037
  C     -205.501     -60.027     209.909
  N     -204.188     -60.283     210.083
  C     -203.996     -61.578     210.381
  C     -204.960     -62.558     210.540
  C     -206.296     -62.163     210.354
  N     -207.359     -63.032     210.463
  N     -204.378     -63.768     210.865
  C     -203.085     -63.520     210.887
  N     -202.804     -62.215     210.592
  O     -201.790     -66.406     210.590
  O     -199.960     -65.163     209.277
  H     -200.895     -59.089     211.277
  H     -200.702     -64.611     208.965
  H     -205.752     -59.005     209.635
  H     -202.321     -64.250     211.113
  H     -201.517     -60.837     209.737
  H     -201.982     -60.624     212.514
  H     -200.963     -62.791     212.964
  H     -198.708     -61.878     211.071
  H     -198.509     -64.262     210.517
  H     -208.266     -62.691     210.185
  H     -207.160     -64.020     210.537
  H     -198.199     -64.016     212.247
  P     -199.838     -61.821     215.086
  C     -198.128     -63.783     214.816
  O     -199.386     -63.347     215.280
  O     -201.238     -61.510     215.486
  O     -198.740     -61.003     215.914
  H     -197.825     -61.308     215.802
  H     -197.949     -64.797     215.185
  H     -197.330     -63.134     215.182
  H     -198.117     -63.801     213.723
  H     -198.436     -68.625     211.814
  H     -200.155     -68.422     212.049
  H     -199.035     -67.291     212.770

 3  4  5  6  7  8  9  10  11  12  22  25  29  30  31  32 0
 6-311+G(2d,p)
 ****
 33  36  37 0
 6-311+G(2d,p)
 ****
 1  2  13  14  15  16  17  18  19  20  21  23  24  26 0
 3-21G
 ****
 27  28  34  35  38  39  40  41  42  43  44  45  46  47  48 0
 3-21G
 ****


