%nproc=1
%NoSave
%Mem=1900MB
#P OB98/GEN NMR

erre ene a

0 1
  C     -898.900     405.166    -181.444
  O     -898.480     406.515    -181.507
  H     -900.000     405.140    -181.419
  H     -898.520     404.689    -180.533
  H     -898.560     404.613    -182.321
  P     -896.910     406.826    -181.491
  C     -897.030     408.310    -183.605
  O     -896.720     408.250    -182.217
  C     -896.410     409.566    -184.234
  O     -896.990     410.721    -183.560
  C     -894.890     409.627    -184.051
  O     -894.170     409.832    -185.280
  C     -894.690     410.669    -182.947
  O     -893.450     411.338    -182.968
  C     -895.910     411.578    -183.130
  N     -896.310     412.290    -181.917
  C     -896.690     413.636    -182.065
  O     -896.730     414.244    -183.142
  N     -897.020     414.286    -180.912
  C     -897.010     413.758    -179.658
  O     -897.340     414.382    -178.651
  C     -896.580     412.350    -179.549
  C     -896.250     411.701    -180.673
  O     -896.020     405.743    -181.996
  O     -896.600     407.166    -179.947
  H     -892.760     410.673    -183.074
  H     -896.170     406.401    -179.530
  H     -897.310     415.249    -181.002
  H     -896.560     411.906    -178.572
  H     -895.940     410.663    -180.639
  H     -895.740     412.318    -183.904
  H     -894.770     410.155    -181.977
  H     -894.500     408.670    -183.699
  H     -896.700     409.614    -185.283
  H     -898.120     408.334    -183.709
  H     -896.630     407.417    -184.099
  P     -893.860     408.694    -186.347
  C     -894.180     410.137    -188.509
  O     -893.290     409.400    -187.676
  O     -894.920     407.651    -186.530
  O     -892.550     407.960    -185.723
  H     -892.610     407.024    -185.987
  H     -893.640     410.536    -189.342
  H     -894.613     410.938    -187.947
  H     -894.955     409.490    -188.863

 6  7  8  9  10  11  12  13  14  15  16  26  31  32  33  34  35 0
 6-311+G(2d,p)
 ****
 36  37 0
 6-311+G(2d,p)
 ****
 1  2  3  4  5  17  18  19  20  21  22  23  24  25 0
 3-21G
 ****
 27  28  29  30  38  39  40  41  42  43  44  45 0
 3-21G
 ****


