%nproc=1
%NoSave
%Mem=1900MB
#P OB98/GEN NMR

erre ene a

0 1
  C      455.959      -1.687      21.915
  O      455.275      -0.627      22.558
  H      455.270      -2.252      21.284
  H      456.748      -1.265      21.284
  H      456.417      -2.349      22.657
  P      454.076      -1.032      23.545
  C      452.229      -0.678      21.747
  O      452.905      -1.593      22.599
  C      451.029      -1.363      21.104
  O      451.474      -2.425      20.232
  C      450.073      -2.016      22.093
  O      449.178      -1.081      22.675
  C      449.337      -2.985      21.181
  O      448.365      -2.271      20.398
  C      450.478      -3.491      20.283
  N      450.482      -8.602      20.025
  C      449.706      -7.669      19.426
  N      449.767      -6.328      19.550
  C      450.751      -5.972      20.397
  C      451.612      -6.809      21.082
  C      451.456      -8.192      20.865
  N      452.235      -9.147      21.486
  N      452.472      -6.080      21.890
  C      452.148      -4.820      21.659
  N      451.106      -4.706      20.773
  O      453.500       0.379      24.032
  O      454.445      -1.927      24.682
  H      447.922      -2.929      19.829
  H      453.001       0.267      24.864
  H      448.937      -8.053      18.760
  H      452.634      -3.965      22.105
  H      450.148      -3.684      19.254
  H      448.804      -3.767      21.725
  H      450.613      -2.589      22.863
  H      450.503      -0.620      20.486
  H      452.917      -0.342      20.965
  H      451.920     -10.103      21.405
  H      452.859      -8.855      22.228
  H      451.905       0.188      22.336
  P      448.800      -1.288      24.222
  C      446.532      -2.359      23.520
  O      447.743      -2.493      24.262
  O      447.906      -0.003      24.554
  O      449.973      -1.419      25.141
  H      447.955       0.224      25.500
  H      445.937      -3.239      23.647
  H      446.762      -2.230      22.483
  H      445.990      -1.507      23.873

 6  7  8  9  10  11  12  13  14  15  25  28  32  33  34  35 0
 6-311+G(2d,p)
 ****
 36  39  40 0
 6-311+G(2d,p)
 ****
 1  2  3  4  5  16  17  18  19  20  21  22  23  24 0
 3-21G
 ****
 26  27  29  30  31  37  38  41  42  43  44  45  46  47 0
 3-21G
 ****
 48 0
 3-21G
 ****


