%nproc=1
%NoSave
%Mem=1900MB
#P OB98/GEN NMR

erre ene a

0 1
  C     1484.659      20.965     733.867
  O     1483.930      22.152     734.126
  H     1484.285      20.533     732.932
  H     1484.503      20.250     734.675
  H     1485.719      21.176     733.759
  P     1484.498      23.123     735.269
  C     1483.643      21.678     737.254
  O     1484.770      22.206     736.570
  C     1484.075      20.604     738.256
  O     1482.914      20.153     738.979
  C     1484.744      19.381     737.605
  O     1485.817      18.931     738.450
  C     1483.642      18.335     737.609
  O     1484.155      17.001     737.596
  C     1482.876      18.709     738.886
  N     1480.029      14.552     738.773
  C     1481.396      14.673     738.916
  N     1482.132      13.568     739.043
  N     1482.005      15.847     738.936
  C     1481.159      16.896     738.833
  C     1479.793      16.884     738.682
  C     1479.134      15.602     738.645
  O     1477.932      15.413     738.504
  N     1479.297      18.151     738.601
  C     1480.335      18.943     738.671
  N     1481.500      18.220     738.838
  O     1483.221      23.983     735.686
  O     1485.628      23.994     734.855
  H     1483.410      16.416     737.866
  H     1483.360      24.925     735.447
  H     1479.613      13.632     738.759
  H     1480.335      20.019     738.634
  H     1483.331      18.276     739.777
  H     1483.006      18.472     736.711
  H     1481.714      12.642     739.084
  H     1485.123      19.584     736.601
  H     1483.130      13.640     739.187
  H     1484.752      21.069     738.996
  H     1482.960      21.233     736.507
  H     1483.122      22.482     737.772
  P     1487.286      18.981     737.817
  C     1487.168      17.042     736.115
  O     1487.215      18.440     736.313
  O     1488.074      17.814     738.583
  O     1488.005      20.291     737.961
  H     1488.693      18.209     739.236
  H     1487.123      16.832     735.067
  H     1486.300      16.643     736.596
  H     1488.045      16.593     736.532

 6  7  8  9  10  11  12  13  14  15  26  29  33  34 0
 6-311+G(2d,p)
 ****
 36  38  39  40  41 0
 6-311+G(2d,p)
 ****
 1  2  3  4  5  16  17  18  19  20  21  22  23  24  25 0
 3-21G
 ****
 27  28  30  31  32  35  37  42  43  44  45  46  47 0
 3-21G
 ****
 48  49 0
 3-21G
 ****


