%nproc=1
%NoSave
%Mem=1900MB
#P OB98/GEN NMR

erre ene a

0 1
  C      193.644      76.432     493.946
  O      193.497      75.094     493.517
  H      192.758      76.995     493.644
  H      194.519      76.878     493.471
  H      193.739      76.491     495.033
  P      194.512      73.985     494.077
  C      193.028      71.921     493.640
  O      194.200      72.637     493.266
  C      192.395      71.237     492.425
  O      191.641      72.228     491.667
  C      193.418      70.607     491.464
  O      192.788      69.469     490.858
  C      193.603      71.712     490.442
  O      194.185      71.229     489.254
  C      192.169      72.239     490.330
  N      192.104      73.568     489.723
  C      191.901      73.617     488.347
  O      191.807      72.608     487.645
  N      191.856      74.867     487.790
  C      192.050      76.042     488.455
  O      192.034      77.135     487.899
  C      192.307      75.926     489.898
  C      192.324      74.716     490.461
  O      194.550      73.830     495.561
  O      195.937      74.422     493.490
  H      193.629      70.511     488.873
  H      196.649      74.150     494.097
  H      191.698      74.918     486.798
  H      192.479      76.843     490.453
  H      192.506      74.600     491.521
  H      191.552      71.564     489.715
  H      194.263      72.492     490.834
  H      194.349      70.313     491.952
  H      191.674      70.488     492.781
  H      192.322      72.638     494.072
  H      193.282      71.173     494.397
  P      192.872      68.005     491.504
  C      190.300      67.872     491.353
  O      191.534      67.197     491.125
  O      193.194      67.996     492.966
  O      194.010      67.250     490.670
  H      194.431      66.569     491.226
  H      189.488      67.238     491.064
  H      190.273      68.771     490.774
  H      190.212      68.114     492.392

 6  7  8  9  10  11  12  13  14  15  16  26  31  32  33  34  35 0
 6-311+G(2d,p)
 ****
 36  37 0
 6-311+G(2d,p)
 ****
 1  2  3  4  5  17  18  19  20  21  22  23  24  25 0
 3-21G
 ****
 27  28  29  30  38  39  40  41  42  43  44  45 0
 3-21G
 ****


