%nproc=1
%NoSave
%Mem=1900MB
#P OB98/GEN NMR

erre ene a

0 1
  C      544.198    -163.707    -282.023
  O      544.048    -162.339    -281.676
  H      544.011    -163.823    -283.087
  H      543.486    -164.321    -281.465
  H      545.220    -164.043    -281.808
  P      544.279    -161.911    -280.150
  C      541.949    -160.781    -280.117
  O      542.818    -161.736    -279.518
  C      540.729    -160.543    -279.242
  O      539.947    -161.751    -279.149
  C      541.063    -160.126    -277.813
  O      541.357    -158.742    -277.758
  C      539.764    -160.489    -277.110
  O      538.759    -159.498    -277.395
  C      539.412    -161.828    -277.795
  N      538.582    -165.451    -274.348
  C      537.804    -164.361    -274.695
  N      536.657    -164.188    -273.981
  N      538.125    -163.505    -275.633
  C      539.320    -163.768    -276.199
  C      540.188    -164.812    -275.931
  C      539.787    -165.770    -274.933
  O      540.443    -166.771    -274.607
  N      541.346    -164.701    -276.658
  C      541.162    -163.623    -277.404
  N      539.952    -163.021    -277.147
  O      545.177    -160.735    -279.914
  O      544.830    -163.245    -279.454
  H      537.931    -159.827    -276.996
  H      545.805    -163.262    -279.454
  H      538.279    -166.061    -273.600
  H      541.863    -163.247    -278.135
  H      538.323    -161.975    -277.878
  H      539.865    -160.554    -276.024
  H      536.513    -164.634    -273.096
  H      541.878    -160.738    -277.385
  H      536.102    -163.367    -274.195
  H      540.103    -159.789    -279.734
  H      541.652    -161.167    -281.093
  H      542.487    -159.830    -280.265
  P      542.002    -158.082    -276.433
  C      539.842    -156.769    -275.815
  O      540.744    -157.817    -275.461
  O      542.851    -156.892    -276.685
  O      542.753    -159.287    -275.710
  H      543.686    -159.409    -276.008
  H      539.062    -156.708    -275.085
  H      539.417    -156.974    -276.775
  H      540.371    -155.840    -275.850

 6  7  8  9  10  11  12  13  14  15  26  29  33  34 0
 6-311+G(2d,p)
 ****
 36  38  39  40  41 0
 6-311+G(2d,p)
 ****
 1  2  3  4  5  16  17  18  19  20  21  22  23  24  25 0
 3-21G
 ****
 27  28  30  31  32  35  37  42  43  44  45  46  47 0
 3-21G
 ****
 48  49 0
 3-21G
 ****


