%nproc=1
%NoSave
%Mem=1900MB
#P OB98/GEN NMR

erre ene a

0 1
  C      104.102    -895.670     -86.928
  O      104.816    -895.580     -88.152
  P      104.477    -894.360     -89.141
  C      106.763    -894.990     -90.296
  O      105.411    -894.560     -90.431
  C      107.487    -894.850     -91.637
  O      107.249    -893.550     -92.204
  C      109.012    -894.990     -91.554
  O      109.397    -896.350     -91.417
  C      109.429    -894.340     -92.848
  O      109.294    -895.260     -93.953
  C      108.419    -893.190     -92.987
  N      108.951    -891.890     -92.566
  C      109.743    -891.220     -93.501
  O      110.001    -891.680     -94.616
  N      110.259    -890.020     -93.099
  C      110.112    -889.460     -91.866
  O      110.619    -888.390     -91.537
  C      109.290    -890.220     -90.910
  C      108.758    -891.370     -91.303
  O      105.136    -893.140     -88.339
  O      103.018    -894.210     -89.407
  H      105.887    -893.440     -87.783
  H      109.808    -896.060     -93.721
  H      110.824    -889.510     -93.769
  H      109.146    -889.800     -89.916
  H      108.140    -891.960     -90.618
  H      108.058    -893.110     -94.032
  H      110.490    -894.010     -92.840
  H      109.394    -894.420     -90.706
  H      107.070    -895.610     -92.328
  H      106.789    -896.030     -89.967
  H      107.248    -894.370     -89.538
  P      110.867    -896.610     -90.787
  C      110.166    -899.130     -91.066
  O      111.208    -898.160     -91.063
  O      110.556    -896.530     -89.211
  O      111.900    -895.640     -91.245
  H      109.713    -896.990     -88.970
  H      110.520    -900.000     -91.601
  H      109.262    -898.740     -91.558
  H      109.918    -899.400     -90.022
  H      104.436    -896.528     -86.382
  H      103.056    -895.762     -87.131
  H      104.276    -894.788     -86.348

 3  4  5  6  7  8  9  10  11  12  13  24  28  29  30  31  32 0
 6-311+G(2d,p)
 ****
 33  34 0
 6-311+G(2d,p)
 ****
 1  2  14  15  16  17  18  19  20  21  22  23  25  26  27 0
 3-21G
 ****
 35  36  37  38  39  40  41  42  43  44  45 0
 3-21G
 ****


