%nproc=1
%NoSave
%Mem=1900MB
#P OB98/GEN NMR

erre ene a

0 1
  C     1727.603     -98.061      25.141
  O     1728.152     -97.310      24.050
  P     1727.198     -96.234      23.352
  C     1728.347     -94.195      24.503
  O     1727.160     -94.978      24.338
  C     1728.188     -92.826      23.855
  O     1726.997     -92.194      24.325
  C     1729.309     -91.867      24.162
  O     1730.454     -92.172      23.382
  C     1728.664     -90.533      23.813
  O     1728.822     -90.214      22.430
  C     1727.182     -90.762      24.188
  N     1726.777     -90.053      25.373
  C     1726.029     -88.888      25.156
  O     1725.774     -88.530      24.021
  N     1725.635     -88.153      26.258
  C     1725.968     -88.538      27.455
  N     1725.535     -87.777      28.483
  C     1726.769     -89.750      27.711
  C     1727.142     -90.446      26.655
  O     1725.753     -96.878      23.493
  O     1727.560     -95.934      21.918
  H     1728.549     -91.008      21.930
  H     1725.160     -96.573      22.775
  H     1727.002     -90.035      28.729
  H     1727.736     -91.349      26.742
  H     1726.545     -90.444      23.360
  H     1729.132     -89.703      24.380
  H     1729.561     -91.893      25.230
  H     1728.091     -92.977      22.763
  H     1724.993     -86.946      28.275
  H     1729.180     -94.739      24.033
  H     1725.717     -88.017      29.459
  H     1728.553     -94.101      25.568
  P     1731.869     -91.607      23.872
  C     1732.792     -93.917      24.536
  O     1732.356     -92.648      25.000
  O     1731.441     -90.339      24.756
  O     1732.866     -91.251      22.825
  H     1732.242     -89.858      25.037
  H     1733.232     -94.464      25.372
  H     1733.531     -93.804      23.742
  H     1731.933     -94.489      24.156
  H     1728.341     -98.740      25.514
  H     1726.751     -98.612      24.802
  H     1727.307     -97.392      25.922

 3  4  5  6  7  8  9  10  11  12  13  21  23  27  28  29  30  32 0
 6-311+G(2d,p)
 ****
 34  35 0
 6-311+G(2d,p)
 ****
 1  2  14  15  16  17  18  19  20  22  24  25  26 0
 3-21G
 ****
 31  33  36  37  38  39  40  41  42  43  44  45  46 0
 3-21G
 ****


