%nproc=1
%NoSave
%Mem=1900MB
#P OB98/GEN NMR

erre ene a

0 1
  C     -112.169     122.737     120.331
  O     -112.136     123.913     121.144
  P     -113.440     124.318     121.983
  C     -114.012     122.597     123.816
  O     -113.278     123.768     123.486
  C     -113.810     122.225     125.293
  O     -112.406     121.931     125.561
  C     -114.220     123.358     126.245
  O     -114.747     122.818     127.471
  C     -112.898     124.026     126.567
  O     -112.967     124.781     127.776
  C     -111.971     122.814     126.615
  N     -107.700     124.386     128.978
  C     -108.921     124.049     129.454
  N     -110.002     123.619     128.770
  C     -109.728     123.530     127.454
  C     -108.528     123.829     126.823
  C     -107.480     124.282     127.643
  N     -106.248     124.651     127.152
  N     -108.625     123.621     125.462
  C     -109.878     123.254     125.270
  N     -110.573     123.152     126.445
  O     -114.749     124.007     121.336
  O     -113.260     125.901     122.178
  H     -112.090     125.181     127.925
  H     -114.123     126.338     122.045
  H     -109.047     124.145     130.530
  H     -110.330     123.065     124.305
  H     -112.065     122.267     127.562
  H     -112.617     124.707     125.751
  H     -114.949     124.061     125.831
  H     -114.375     121.310     125.511
  H     -113.693     121.769     123.178
  H     -105.596     125.075     127.799
  H     -106.120     124.720     126.152
  H     -115.072     122.759     123.588
  P     -116.345     122.604     127.520
  C     -116.158     120.016     127.198
  O     -116.570     121.094     128.006
  O     -117.036     123.004     126.255
  O     -116.758     123.497     128.784
  H     -116.236     123.328     129.588
  H     -116.281     119.086     127.761
  H     -115.104     120.115     126.918
  H     -116.776     119.966     126.294
  H     -111.225     122.614     119.843
  H     -112.940     122.833     119.596
  H     -112.367     121.884     120.946

 3  4  5  6  7  8  9  10  11  12  22  25  29  30  31  32 0
 6-311+G(2d,p)
 ****
 33  36  37 0
 6-311+G(2d,p)
 ****
 1  2  13  14  15  16  17  18  19  20  21  23  24  26 0
 3-21G
 ****
 27  28  34  35  38  39  40  41  42  43  44  45  46  47  48 0
 3-21G
 ****


