%nproc=1
%NoSave
%Mem=1900MB
#P OB98/GEN NMR

erre ene a

0 1
  C      415.932    -391.479    -399.428
  O      416.595    -392.468    -398.657
  P      416.214    -394.001    -398.949
  C      418.691    -394.540    -398.323
  O      417.597    -394.787    -399.205
  C      420.012    -394.872    -399.018
  O      420.072    -394.230    -400.305
  C      421.258    -394.405    -398.267
  O      421.536    -395.250    -397.166
  C      422.287    -394.462    -399.396
  O      422.722    -395.814    -399.607
  C      421.472    -393.973    -400.608
  N      424.552    -390.481    -402.751
  C      424.662    -391.820    -402.607
  N      423.810    -392.682    -402.012
  C      422.741    -392.024    -401.520
  C      422.496    -390.664    -401.572
  C      423.456    -389.868    -402.224
  N      423.335    -388.494    -402.354
  N      421.308    -390.353    -400.940
  C      420.832    -391.516    -400.536
  N      421.656    -392.552    -400.867
  O      415.555    -393.942    -400.399
  O      415.301    -394.626    -397.942
  H      423.379    -396.023    -398.916
  H      414.846    -394.615    -400.495
  H      425.562    -392.263    -403.033
  H      419.905    -391.654    -400.001
  H      421.722    -394.518    -401.531
  H      423.184    -393.855    -399.195
  H      421.137    -393.376    -397.934
  H      420.045    -395.963    -399.177
  H      418.591    -395.168    -397.432
  H      424.139    -387.993    -402.702
  H      422.602    -388.033    -401.846
  H      418.670    -393.486    -398.009
  P      421.546    -394.574    -395.709
  C      421.532    -396.646    -394.175
  O      420.743    -395.628    -394.798
  O      420.486    -393.391    -395.893
  O      422.892    -394.174    -395.210
  H      419.663    -393.700    -396.311
  H      420.872    -397.252    -393.548
  H      422.299    -396.190    -393.543
  H      421.985    -397.279    -394.931
  H      416.275    -390.509    -399.135
  H      414.877    -391.548    -399.265
  H      416.144    -391.634    -400.465

 3  4  5  6  7  8  9  10  11  12  22  25  29  30  31  32 0
 6-311+G(2d,p)
 ****
 33  36  37 0
 6-311+G(2d,p)
 ****
 1  2  13  14  15  16  17  18  19  20  21  23  24  26 0
 3-21G
 ****
 27  28  34  35  38  39  40  41  42  43  44  45  46  47  48 0
 3-21G
 ****


