%nproc=1
%NoSave
%Mem=1900MB
#P OB98/GEN NMR

erre ene a

0 1
  C      268.353      59.942     -52.075
  O      267.479      59.614     -53.136
  H      269.311      60.278     -52.479
  H      267.912      60.758     -51.496
  H      268.504      59.084     -51.415
  P      267.773      58.253     -53.933
  C      269.491      57.519     -55.734
  O      269.097      58.519     -54.809
  C      270.820      57.895     -56.391
  O      270.612      59.080     -57.213
  C      271.951      58.204     -55.398
  O      273.176      57.680     -55.927
  C      272.019      59.720     -55.410
  O      273.299      60.220     -55.044
  C      271.633      60.024     -56.856
  N      272.740      64.566     -58.869
  C      273.227      63.326     -59.109
  N      272.839      62.157     -58.563
  C      271.789      62.345     -57.742
  C      271.182      63.540     -57.401
  C      271.712      64.697     -57.997
  N      271.269      65.969     -57.708
  N      270.174      63.325     -56.479
  C      270.195      62.023     -56.248
  N      271.153      61.391     -56.987
  O      266.597      58.234     -55.025
  O      267.785      57.012     -53.106
  H      273.971      59.851     -55.651
  H      265.808      57.803     -54.649
  H      274.046      63.272     -59.823
  H      269.563      61.503     -55.540
  H      272.473      59.906     -57.550
  H      271.281      60.125     -54.713
  H      271.781      57.800     -54.394
  H      271.114      57.083     -57.070
  H      268.725      57.423     -56.512
  H      271.782      66.744     -58.099
  H      270.580      66.091     -56.980
  H      269.582      56.557     -55.213
  P      273.861      56.462     -55.137
  C      275.258      56.186     -52.955
  O      274.765      57.066     -53.958
  O      274.934      55.908     -56.181
  O      272.898      55.397     -54.714
  H      275.043      54.942     -56.076
  H      275.838      56.741     -52.248
  H      275.871      55.436     -53.409
  H      274.436      55.720     -52.454

 6  7  8  9  10  11  12  13  14  15  25  28  32  33  34  35 0
 6-311+G(2d,p)
 ****
 36  39  40 0
 6-311+G(2d,p)
 ****
 1  2  3  4  5  16  17  18  19  20  21  22  23  24 0
 3-21G
 ****
 26  27  29  30  31  37  38  41  42  43  44  45  46  47 0
 3-21G
 ****
 48 0
 3-21G
 ****


