%nproc=1
%NoSave
%Mem=1900MB
#P OB98/GEN NMR

erre ene a

0 1
  C     -877.714     546.788     239.690
  O     -878.866     547.065     238.908
  H     -877.708     547.466     240.549
  H     -876.813     546.963     239.099
  H     -877.732     545.758     240.053
  P     -879.200     546.110     237.667
  C     -878.404     547.780     235.859
  O     -878.204     546.518     236.480
  C     -878.362     547.640     234.344
  O     -877.127     547.017     233.932
  C     -879.467     546.748     233.772
  O     -880.710     547.431     233.756
  C     -878.904     546.406     232.412
  O     -879.131     547.478     231.476
  C     -877.391     546.264     232.727
  N     -876.982     544.859     232.877
  C     -876.078     544.378     231.932
  O     -875.668     545.046     230.995
  N     -875.700     543.074     232.087
  C     -876.197     542.183     233.011
  O     -875.890     541.009     233.054
  C     -877.157     542.748     233.974
  C     -877.494     544.046     233.867
  O     -880.640     546.036     237.276
  O     -878.644     544.678     238.122
  H     -878.815     547.152     230.609
  H     -879.392     544.104     238.377
  H     -875.062     542.697     231.409
  H     -877.571     542.095     234.727
  H     -878.215     544.473     234.556
  H     -876.793     546.716     231.934
  H     -879.360     545.507     231.992
  H     -879.545     545.823     234.372
  H     -878.405     548.637     233.898
  H     -877.608     548.466     236.184
  H     -879.369     548.185     236.192
  P     -882.022     546.725     234.342
  C     -882.919     546.243     231.972
  O     -882.545     545.691     233.234
  O     -883.067     547.649     234.887
  O     -881.460     545.762     235.494
  H     -881.847     546.021     236.348
  H     -883.248     545.459     231.323
  H     -882.077     546.737     231.535
  H     -883.713     546.947     232.112

 6  7  8  9  10  11  12  13  14  15  16  26  31  32  33  34  35 0
 6-311+G(2d,p)
 ****
 36  37 0
 6-311+G(2d,p)
 ****
 1  2  3  4  5  17  18  19  20  21  22  23  24  25 0
 3-21G
 ****
 27  28  29  30  38  39  40  41  42  43  44  45 0
 3-21G
 ****


