%nproc=1
%NoSave
%Mem=1900MB
#P OB98/GEN NMR

erre ene a

0 1
  C       45.830       1.290     272.142
  O       44.862       2.140     272.717
  H       46.822       1.697     272.364
  H       45.711       1.252     271.057
  H       45.761       0.285     272.564
  P       43.305       1.806     272.510
  C       41.870      -0.300     272.818
  O       43.100       0.336     273.136
  C       41.639      -1.526     273.700
  O       42.680      -2.507     273.447
  C       41.652      -1.217     275.205
  O       40.535      -1.847     275.837
  C       42.941      -1.859     275.690
  O       42.915      -2.185     277.079
  C       43.054      -3.047     274.730
  N       44.391      -3.624     274.723
  C       44.547      -4.819     275.433
  O       43.591      -5.330     276.013
  N       45.799      -5.378     275.516
  C       46.809      -4.774     274.979
  N       48.026      -5.364     275.125
  C       46.692      -3.495     274.245
  C       45.466      -2.984     274.153
  O       42.810       1.974     271.114
  O       42.542       2.743     273.563
  H       43.784      -2.566     277.326
  H       41.612       2.863     273.266
  H       47.571      -3.026     273.822
  H       45.279      -2.049     273.637
  H       42.332      -3.834     274.993
  H       43.778      -1.165     275.522
  H       41.628      -0.148     275.424
  H       40.694      -1.997     273.401
  H       48.061      -6.236     275.641
  H       41.887      -0.585     271.759
  H       48.885      -4.973     274.772
  H       41.058       0.416     272.982
  P       39.160      -1.018     275.836
  C       37.862       0.169     273.927
  O       38.615      -0.965     274.324
  O       39.633       0.481     276.132
  O       38.176      -1.495     276.852
  H       39.346       0.750     277.026
  H       37.570       0.063     272.903
  H       38.459       1.050     274.038
  H       36.989       0.250     274.540

 6  7  8  9  10  11  12  13  14  15  16  26  30  31  32  33  35 0
 6-311+G(2d,p)
 ****
 37  38 0
 6-311+G(2d,p)
 ****
 1  2  3  4  5  17  18  19  20  21  22  23  24  25 0
 3-21G
 ****
 27  28  29  34  36  39  40  41  42  43  44  45  46 0
 3-21G
 ****


