%nproc=1
%NoSave
%Mem=1900MB
#P OB98/GEN NMR

erre ene a

0 1
  C     -136.361     -48.499     329.992
  O     -137.635     -48.105     330.472
  H     -136.096     -49.458     330.448
  H     -135.598     -47.767     330.265
  H     -136.390     -48.621     328.907
  P     -138.176     -46.652     330.071
  C     -137.346     -45.510     332.242
  O     -137.222     -45.611     330.825
  C     -136.439     -44.402     332.772
  O     -135.060     -44.710     332.493
  C     -136.703     -43.050     332.122
  O     -137.879     -42.457     332.641
  C     -135.408     -42.323     332.440
  O     -135.408     -41.823     333.781
  C     -134.370     -43.454     332.265
  N     -133.726     -43.440     330.959
  C     -132.783     -42.428     330.748
  O     -132.528     -41.621     331.638
  N     -132.168     -42.352     329.521
  C     -132.457     -43.211     328.594
  N     -131.813     -43.080     327.404
  C     -133.436     -44.301     328.780
  C     -134.029     -44.351     329.971
  O     -139.642     -46.400     330.269
  O     -137.745     -46.498     328.536
  H     -135.709     -42.563     334.342
  H     -138.443     -46.839     327.947
  H     -133.639     -45.002     327.977
  H     -134.765     -45.122     330.191
  H     -133.591     -43.381     333.036
  H     -135.251     -41.477     331.771
  H     -136.774     -43.160     331.031
  H     -136.560     -44.345     333.862
  H     -131.160     -42.309     327.320
  H     -137.050     -46.476     332.663
  H     -131.893     -43.739     326.643
  H     -138.388     -45.312     332.526
  P     -138.794     -41.513     331.724
  C     -137.336     -39.432     332.193
  O     -137.815     -40.347     331.205
  O     -140.068     -41.050     332.347
  O     -139.019     -42.401     330.402
  H     -139.655     -43.134     330.566
  H     -136.699     -38.708     331.730
  H     -136.785     -39.967     332.938
  H     -138.166     -38.936     332.651

 6  7  8  9  10  11  12  13  14  15  16  26  30  31  32  33  35 0
 6-311+G(2d,p)
 ****
 37  38 0
 6-311+G(2d,p)
 ****
 1  2  3  4  5  17  18  19  20  21  22  23  24  25 0
 3-21G
 ****
 27  28  29  34  36  39  40  41  42  43  44  45  46 0
 3-21G
 ****


