%nproc=1
%NoSave
%Mem=1900MB
#P OB98/GEN NMR

erre ene a

0 1
  C      372.797    -964.613     278.602
  O      372.835    -965.639     279.583
  H      373.318    -963.739     279.005
  H      371.762    -964.328     278.387
  H      373.302    -964.933     277.690
  P      372.127    -967.039     279.243
  C      369.641    -967.763     279.030
  O      370.557    -966.682     279.185
  C      368.293    -967.398     279.644
  O      367.625    -966.372     278.881
  C      367.290    -968.549     279.710
  O      367.589    -969.510     280.700
  C      366.027    -967.761     280.017
  O      366.024    -967.368     281.402
  C      366.193    -966.552     279.084
  N      365.515    -966.715     277.799
  C      364.113    -966.624     277.810
  O      363.509    -966.417     278.860
  N      363.423    -966.801     276.627
  C      364.074    -967.070     275.541
  N      363.346    -967.248     274.401
  C      365.549    -967.202     275.489
  C      366.196    -967.012     276.644
  O      372.494    -968.192     280.126
  O      372.457    -967.287     277.694
  H      366.182    -968.176     281.930
  H      372.044    -968.154     277.437
  H      366.043    -967.454     274.557
  H      367.271    -967.093     276.674
  H      365.823    -965.631     279.566
  H      365.115    -968.336     279.845
  H      367.178    -969.019     278.722
  H      368.493    -966.980     280.647
  H      362.339    -967.155     274.469
  H      370.075    -968.645     279.515
  H      363.763    -967.533     273.523
  H      369.500    -967.970     277.966
  P      366.944    -970.976     280.511
  C      364.504    -971.909     280.463
  O      365.352    -970.793     280.673
  O      367.384    -971.743     281.849
  O      367.361    -971.693     279.263
  H      368.168    -972.300     281.675
  H      363.486    -971.616     280.610
  H      364.756    -972.684     281.157
  H      364.631    -972.270     279.464

 6  7  8  9  10  11  12  13  14  15  16  26  30  31  32  33  35 0
 6-311+G(2d,p)
 ****
 37  38 0
 6-311+G(2d,p)
 ****
 1  2  3  4  5  17  18  19  20  21  22  23  24  25 0
 3-21G
 ****
 27  28  29  34  36  39  40  41  42  43  44  45  46 0
 3-21G
 ****


