%nproc=1
%NoSave
%Mem=1900MB
#P OB98/GEN NMR

erre ene a

0 1
  C      -48.717     -83.961      95.665
  O      -47.629     -84.870      95.577
  P      -47.490     -85.735      94.229
  C      -49.310     -87.409      95.020
  O      -47.959     -87.219      94.620
  C      -49.616     -88.894      95.193
  O      -49.613     -89.553      93.910
  C      -48.609     -89.652      96.044
  O      -48.856     -89.497      97.432
  C      -48.887     -91.083      95.614
  O      -50.063     -91.576      96.284
  C      -49.166     -90.919      94.116
  N      -45.364     -94.203      93.170
  C      -46.331     -94.192      94.112
  N      -47.301     -93.276      94.305
  C      -47.186     -92.269      93.424
  C      -46.229     -92.126      92.432
  C      -45.287     -93.159      92.309
  N      -44.320     -93.184      91.331
  N      -46.434     -90.961      91.726
  C      -47.498     -90.414      92.273
  N      -47.997     -91.173      93.295
  O      -45.906     -85.881      94.057
  O      -48.135     -85.137      93.027
  H      -49.850     -91.616      97.236
  H      -45.687     -86.057      93.120
  H      -46.331     -95.039      94.795
  H      -47.948     -89.482      91.956
  H      -49.965     -91.578      93.765
  H      -48.070     -91.767      95.860
  H      -47.579     -89.383      95.779
  H      -50.625     -88.983      95.616
  H      -49.972     -86.994      94.256
  H      -43.806     -94.039      91.195
  H      -44.394     -92.512      90.574
  H      -49.484     -86.872      95.959
  P      -47.573     -89.323      98.382
  C      -47.012     -91.860      98.376
  O      -47.406     -90.729      99.129
  O      -48.097     -88.335      99.524
  O      -46.362     -88.796      97.683
  H      -47.352     -87.842      99.918
  H      -46.651     -92.630      99.062
  H      -46.208     -91.610      97.677
  H      -47.869     -92.253      97.824
  H      -48.686     -83.457      96.609
  H      -49.638     -84.498      95.578
  H      -48.647     -83.243      94.875

 3  4  5  6  7  8  9  10  11  12  22  25  29  30  31  32 0
 6-311+G(2d,p)
 ****
 33  36  37 0
 6-311+G(2d,p)
 ****
 1  2  13  14  15  16  17  18  19  20  21  23  24  26 0
 3-21G
 ****
 27  28  34  35  38  39  40  41  42  43  44  45  46  47  48 0
 3-21G
 ****


