%nproc=1
%NoSave
%Mem=1900MB
#P OB98/GEN NMR

erre ene a

0 1
  C      265.923     -57.126     114.493
  O      264.573     -57.540     114.571
  H      266.519     -57.951     114.096
  H      266.308     -56.857     115.480
  H      266.014     -56.271     113.813
  P      263.540     -56.598     115.360
  C      263.635     -58.160     117.416
  O      263.845     -56.839     116.921
  C      264.714     -58.540     118.435
  O      266.022     -58.405     117.847
  C      264.734     -57.647     119.667
  O      263.614     -57.805     120.514
  C      266.134     -57.880     120.216
  O      266.225     -59.014     121.072
  C      266.947     -58.133     118.923
  N      267.834     -57.020     118.607
  C      269.119     -57.368     118.201
  O      269.516     -58.532     118.124
  N      269.959     -56.327     117.922
  C      269.659     -55.003     118.055
  O      270.471     -54.114     117.828
  C      268.294     -54.695     118.512
  C      267.455     -55.705     118.763
  O      262.095     -56.764     114.994
  O      264.100     -55.121     115.106
  H      265.671     -58.831     121.855
  H      263.418     -54.440     115.312
  H      270.891     -56.559     117.616
  H      268.022     -53.654     118.633
  H      266.444     -55.503     119.107
  H      267.564     -59.034     119.034
  H      266.488     -57.017     120.789
  H      264.709     -56.605     119.328
  H      264.571     -59.591     118.711
  H      263.689     -58.847     116.563
  H      262.640     -58.232     117.867
  P      262.554     -56.646     120.789
  C      262.274     -57.329     123.283
  O      262.591     -56.292     122.357
  O      261.225     -56.775     120.117
  O      263.299     -55.371     120.138
  H      262.613     -54.790     119.760
  H      262.340     -56.948     124.281
  H      262.965     -58.137     123.163
  H      261.280     -57.679     123.100

 6  7  8  9  10  11  12  13  14  15  16  26  31  32  33  34  35 0
 6-311+G(2d,p)
 ****
 36  37 0
 6-311+G(2d,p)
 ****
 1  2  3  4  5  17  18  19  20  21  22  23  24  25 0
 3-21G
 ****
 27  28  29  30  38  39  40  41  42  43  44  45 0
 3-21G
 ****


