%nproc=1
%NoSave
%Mem=1900MB
#P OB98/GEN NMR

erre ene a

0 1
  C      122.294      82.543      19.076
  O      123.299      83.473      18.727
  H      121.848      82.147      18.161
  H      121.516      83.045      19.658
  H      122.714      81.713      19.652
  P      124.302      83.928      19.894
  C      126.373      83.098      18.570
  O      125.606      83.001      19.760
  C      127.862      83.121      18.900
  O      128.646      83.167      17.688
  C      128.301      84.315      19.740
  O      128.071      84.093      21.125
  C      129.789      84.345      19.433
  O      130.461      83.310      20.182
  C      129.811      84.004      17.936
  N      132.547      87.375      15.315
  C      132.960      86.368      16.165
  N      134.293      86.248      16.350
  N      132.144      85.555      16.784
  C      130.840      85.808      16.524
  C      130.306      86.779      15.706
  C      131.220      87.659      15.017
  O      130.904      88.560      14.244
  N      128.938      86.729      15.692
  C      128.642      85.745      16.517
  N      129.761      85.155      17.051
  O      123.579      83.378      21.215
  O      124.551      85.395      19.983
  H      130.059      82.462      19.920
  H      123.138      84.122      21.665
  H      133.216      87.979      14.872
  H      127.641      85.416      16.755
  H      130.697      83.425      17.655
  H      130.257      85.291      19.709
  H      134.975      86.854      15.922
  H      127.835      85.247      19.396
  H      134.618      85.514      16.967
  H      128.107      82.180      19.409
  H      126.102      84.019      18.043
  H      126.146      82.239      17.929
  P      128.802      85.055      22.180
  C      126.592      86.337      22.621
  O      127.956      86.420      22.233
  O      130.138      85.473      21.405
  O      129.109      84.436      23.499
  H      130.915      85.072      21.842
  H      126.158      87.315      22.611
  H      126.526      85.927      23.607
  H      126.064      85.706      21.937

 6  7  8  9  10  11  12  13  14  15  26  29  33  34 0
 6-311+G(2d,p)
 ****
 36  38  39  40  41 0
 6-311+G(2d,p)
 ****
 1  2  3  4  5  16  17  18  19  20  21  22  23  24  25 0
 3-21G
 ****
 27  28  30  31  32  35  37  42  43  44  45  46  47 0
 3-21G
 ****
 48  49 0
 3-21G
 ****


