%nproc=1
%NoSave
%Mem=1900MB
#P OB98/GEN NMR

erre ene a

0 1
  C     -337.859      68.418     -63.212
  O     -337.749      69.749     -62.747
  H     -338.753      67.963     -62.776
  H     -336.985      67.839     -62.902
  H     -337.947      68.399     -64.302
  P     -336.562      70.640     -63.355
  C     -337.856      70.927     -65.601
  O     -337.225      71.559     -64.496
  C     -339.019      71.792     -66.098
  O     -339.895      72.076     -64.970
  C     -338.568      73.134     -66.685
  O     -339.415      73.472     -67.790
  C     -338.805      74.111     -65.539
  O     -338.970      75.457     -65.963
  C     -340.066      73.510     -64.904
  N     -340.253      73.938     -63.518
  C     -341.252      74.875     -63.267
  O     -342.042      75.306     -64.115
  N     -341.341      75.320     -61.973
  C     -340.526      74.949     -60.934
  O     -340.641      75.402     -59.803
  C     -339.481      73.966     -61.268
  C     -339.392      73.519     -62.521
  O     -335.701      69.580     -64.196
  O     -335.739      71.389     -62.363
  H     -335.002      69.187     -63.640
  H     -339.755      75.497     -66.548
  H     -342.062      75.994     -61.775
  H     -338.814      73.658     -60.470
  H     -338.624      72.802     -62.795
  H     -340.952      73.765     -65.497
  H     -337.963      74.076     -64.839
  H     -337.526      73.133     -67.004
  H     -339.604      71.217     -66.831
  H     -338.241      69.950     -65.284
  H     -337.125      70.780     -66.402
  P     -338.700      73.980     -69.136
  C     -337.190      71.920     -69.696
  O     -338.367      72.654     -69.984
  O     -337.284      74.469     -68.581
  O     -339.491      75.022     -69.859
  H     -336.937      73.907     -67.862
  H     -337.127      71.075     -70.350
  H     -337.219      71.583     -68.681
  H     -336.335      72.547     -69.840

 6  7  8  9  10  11  12  13  14  15  16  27  31  32  33  34  35 0
 6-311+G(2d,p)
 ****
 36  37 0
 6-311+G(2d,p)
 ****
 1  2  3  4  5  17  18  19  20  21  22  23  24  25 0
 3-21G
 ****
 26  28  29  30  38  39  40  41  42  43  44  45 0
 3-21G
 ****


