%nproc=1
%NoSave
%Mem=1900MB
#P OB98/GEN NMR

erre ene a

0 1
  C       97.555    -275.342    -788.091
  O       97.897    -275.600    -789.443
  P       99.173    -276.536    -789.730
  C       97.957    -278.789    -790.230
  O       98.674    -277.667    -790.755
  C       96.686    -279.037    -791.032
  O       95.740    -277.976    -790.780
  C       96.873    -279.071    -792.533
  O       97.367    -280.326    -792.989
  C       95.455    -278.844    -793.027
  O       94.724    -280.077    -792.989
  C       94.900    -277.844    -791.965
  N       93.229    -274.565    -795.423
  C       92.988    -275.928    -795.309
  N       92.160    -276.483    -796.210
  N       93.510    -276.672    -794.365
  C       94.290    -275.976    -793.497
  C       94.598    -274.626    -793.525
  C       94.047    -273.827    -794.605
  O       94.280    -272.636    -794.795
  N       95.410    -274.287    -792.472
  C       95.552    -275.415    -791.787
  N       94.909    -276.467    -792.390
  O       99.331    -277.345    -788.357
  O      100.413    -275.809    -790.096
  H       95.216    -280.716    -793.541
  H      100.262    -277.629    -788.229
  H       92.776    -274.043    -796.160
  H       96.102    -275.495    -790.858
  H       93.893    -278.104    -791.661
  H       95.409    -278.454    -794.056
  H       91.622    -275.931    -796.879
  H       97.528    -278.249    -792.874
  H       91.932    -277.454    -796.113
  H       96.242    -279.981    -790.670
  H       97.691    -278.587    -789.180
  H       98.629    -279.661    -790.262
  P       98.244    -280.332    -794.340
  C      100.726    -280.314    -793.576
  O       99.607    -281.086    -793.960
  O       98.655    -278.790    -794.495
  O       97.502    -280.839    -795.537
  H       98.817    -278.581    -795.443
  H      100.436    -279.429    -792.995
  H      101.266    -279.989    -794.470
  H      101.386    -280.928    -792.980
  H       96.692    -274.710    -788.056
  H       98.374    -274.856    -787.603
  H       97.341    -276.266    -787.595

 3  4  5  6  7  8  9  10  11  12  23  26  30  31  33  0
 6-311+G(2d,p)
 ****
 35  36  37  38 0
 6-311+G(2d,p)
 ****
 1  2  13  14  15  16  17  18  19  20  21  22  24  25  27  28  29 0
 3-21G
 ****
 32  34  39  40  41  42  43  44  45  46  47  48  49 0
 3-21G
 ****


