%nproc=1
%NoSave
%Mem=1900MB
#P OB98/GEN NMR

erre ene a

0 1
  C     -518.074     706.326     349.681
  O     -518.518     706.060     350.995
  H     -518.055     707.408     349.534
  H     -518.763     705.885     348.956
  H     -517.063     705.931     349.529
  P     -518.681     704.535     351.486
  C     -519.069     703.419     353.765
  O     -519.149     704.627     353.026
  C     -519.280     703.674     355.258
  O     -518.114     704.365     355.796
  C     -520.508     704.535     355.577
  O     -521.266     703.942     356.638
  C     -519.925     705.858     356.049
  O     -520.801     706.594     356.890
  C     -518.623     705.367     356.700
  N     -517.666     706.456     356.917
  C     -517.912     707.284     358.026
  O     -518.893     707.070     358.748
  N     -517.096     708.351     358.237
  C     -516.140     708.614     357.399
  N     -515.378     709.714     357.652
  C     -515.861     707.780     356.207
  C     -516.647     706.732     356.027
  O     -517.485     703.674     351.243
  O     -519.996     704.007     350.739
  H     -520.320     707.375     357.232
  H     -519.969     703.023     350.697
  H     -515.054     708.045     355.534
  H     -516.532     706.069     355.186
  H     -518.822     704.886     357.673
  H     -519.682     706.477     355.173
  H     -521.169     704.680     354.712
  H     -519.325     702.702     355.777
  H     -515.601     710.253     358.477
  H     -518.081     702.960     353.586
  H     -514.621     710.026     357.063
  H     -519.850     702.736     353.405
  P     -522.530     703.040     356.198
  C     -523.720     700.947     357.178
  O     -522.906     702.085     357.432
  O     -521.915     702.040     355.105
  O     -523.658     703.836     355.635
  H     -522.254     702.282     354.223
  H     -523.882     700.414     358.091
  H     -523.230     700.308     356.474
  H     -524.660     701.263     356.778

 6  7  8  9  10  11  12  13  14  15  16  26  30  31  32  33  35 0
 6-311+G(2d,p)
 ****
 37  38 0
 6-311+G(2d,p)
 ****
 1  2  3  4  5  17  18  19  20  21  22  23  24  25 0
 3-21G
 ****
 27  28  29  34  36  39  40  41  42  43  44  45  46 0
 3-21G
 ****


