%nproc=1
%NoSave
%Mem=1900MB
#P OB98/GEN NMR

erre ene a

0 1
  C      838.506    -665.880    -552.940
  O      837.572    -666.806    -553.472
  P      837.170    -666.655    -555.018
  C      835.973    -664.797    -556.399
  O      836.509    -665.193    -555.144
  C      834.584    -664.158    -556.224
  O      834.634    -663.199    -555.153
  C      834.098    -663.404    -557.443
  O      833.512    -664.267    -558.415
  C      833.015    -662.524    -556.802
  O      831.810    -663.287    -556.585
  C      833.660    -662.167    -555.463
  N      834.199    -657.694    -553.023
  C      833.395    -658.747    -552.798
  N      833.305    -659.901    -553.507
  C      834.137    -659.871    -554.567
  C      834.977    -658.843    -554.939
  C      835.024    -657.714    -554.105
  N      835.867    -656.650    -554.327
  N      835.691    -659.188    -556.077
  C      835.261    -660.403    -556.368
  N      834.338    -660.881    -555.482
  O      835.919    -667.633    -555.168
  O      838.252    -666.949    -555.989
  H      831.167    -662.673    -556.179
  H      835.818    -667.901    -556.112
  H      832.735    -658.665    -551.933
  H      835.606    -660.992    -557.223
  H      832.937    -662.128    -554.636
  H      832.745    -661.670    -557.422
  H      834.863    -662.768    -557.869
  H      833.893    -664.965    -555.950
  H      835.872    -665.689    -557.039
  H      835.946    -655.966    -553.589
  H      836.607    -656.773    -555.011
  H      836.662    -664.083    -556.877
  P      832.758    -663.553    -559.641
  C      830.788    -661.835    -559.780
  O      831.532    -662.779    -558.986
  O      832.065    -664.783    -560.401
  O      833.647    -662.758    -560.521
  H      831.922    -664.578    -561.335
  H      829.828    -661.655    -559.286
  H      830.588    -662.266    -560.794
  H      831.352    -660.925    -559.864
  H      838.678    -666.100    -551.907
  H      838.117    -664.888    -553.033
  H      839.428    -665.954    -553.478

 3  4  5  6  7  8  9  10  11  12  22  25  29  30  31  32 0
 6-311+G(2d,p)
 ****
 33  36  37 0
 6-311+G(2d,p)
 ****
 1  2  13  14  15  16  17  18  19  20  21  23  24  26 0
 3-21G
 ****
 27  28  34  35  38  39  40  41  42  43  44  45  46  47  48 0
 3-21G
 ****


