%nproc=1
%NoSave
%Mem=1900MB
#P OB98/GEN NMR

erre ene a

0 1
  C      105.524      10.170     -51.802
  O      104.395       9.374     -51.416
  P      104.354       7.775     -51.549
  C      103.761       7.184     -49.099
  O      103.325       7.209     -50.454
  C      102.606       6.822     -48.163
  O      101.855       8.008     -47.810
  C      101.564       5.883     -48.751
  O      102.031       4.551     -48.851
  C      100.407       6.071     -47.771
  O      100.559       5.234     -46.616
  C      100.554       7.552     -47.370
  N       99.497       8.393     -47.905
  C       98.992       9.382     -47.057
  O       99.381       9.462     -45.892
  N       98.046      10.247     -47.548
  C       97.568      10.071     -48.741
  N       96.646      10.970     -49.180
  C       97.976       8.957     -49.617
  C       98.936       8.166     -49.142
  O      105.699       7.128     -51.499
  O      103.626       7.485     -52.945
  H      103.918       6.622     -53.293
  H      100.638       4.316     -46.941
  H       97.522       8.822     -50.588
  H       99.305       7.330     -49.727
  H      100.570       7.647     -46.278
  H       99.440       5.826     -48.222
  H      101.264       6.250     -49.740
  H      103.033       6.393     -47.246
  H       96.397      11.728     -48.558
  H      104.130       8.182     -48.836
  H       96.230      10.937     -50.099
  H      104.586       6.472     -48.999
  P      101.145       3.534     -49.720
  C      102.746       3.256     -51.743
  O      102.145       2.657     -50.612
  O      100.414       4.484     -50.783
  O      100.154       2.745     -48.928
  H       99.500       4.178     -50.922
  H      103.701       2.760     -51.936
  H      102.926       4.324     -51.588
  H      102.097       3.120     -52.611
  H      105.312      11.203     -51.619
  H      105.723      10.026     -52.844
  H      106.380       9.875     -51.232

 3  4  5  6  7  8  9  10  11  12  13  24  27  28  29  30  32 0
 6-311+G(2d,p)
 ****
 34  35 0
 6-311+G(2d,p)
 ****
 1  2  14  15  16  17  18  19  20  21  22  23  25  26 0
 3-21G
 ****
 31  33  36  37  38  39  40  41  42  43  44  45  46 0
 3-21G
 ****


