%nproc=1
%NoSave
%Mem=1900MB
#P OB98/GEN NMR

erre ene a

0 1
  C      211.019     106.855     151.052
  O      210.858     105.875     152.056
  H      212.064     107.170     151.034
  H      210.395     107.726     151.275
  H      210.757     106.454     150.069
  P      209.456     105.109     152.176
  C      208.235     103.329     150.759
  O      209.234     104.339     150.788
  C      207.991     102.851     149.322
  O      207.371     103.937     148.568
  C      209.272     102.449     148.563
  O      208.898     101.431     147.622
  C      209.607     103.754     147.860
  O      210.595     103.600     146.870
  C      208.197     104.165     147.408
  N      208.065     105.540     146.943
  C      208.471     105.828     145.643
  O      208.930     104.997     144.859
  N      208.338     107.135     145.254
  C      207.836     108.154     146.009
  O      207.712     109.300     145.594
  C      207.430     107.789     147.375
  C      207.556     106.524     147.776
  O      208.302     105.937     152.633
  O      209.766     103.915     153.198
  H      209.416     104.142     154.081
  H      211.382     103.173     147.271
  H      208.620     107.358     144.308
  H      207.038     108.576     148.009
  H      207.258     106.220     148.774
  H      207.847     103.487     146.622
  H      210.012     104.474     148.578
  H      210.060     102.071     149.216
  H      207.269     102.024     149.343
  H      207.311     103.750     151.168
  H      208.554     102.491     151.385
  P      209.250      99.879     147.816
  C      208.561      97.961     149.423
  O      208.323      99.303     149.001
  O      210.707      99.602     148.005
  O      208.694      99.148     146.507
  H      209.198      98.331     146.343
  H      207.881      97.709     150.209
  H      209.566      97.872     149.778
  H      208.414      97.296     148.598

 6  7  8  9  10  11  12  13  14  15  16  27  31  32  33  34  35 0
 6-311+G(2d,p)
 ****
 36  37 0
 6-311+G(2d,p)
 ****
 1  2  3  4  5  17  18  19  20  21  22  23  24  25 0
 3-21G
 ****
 26  28  29  30  38  39  40  41  42  43  44  45 0
 3-21G
 ****


