%nproc=1
%NoSave
%Mem=1900MB
#P OB98/GEN NMR

erre ene a

0 1
  C       70.337     600.463     587.212
  O       71.084     599.992     588.321
  P       72.607     599.484     588.149
  C       73.354     601.136     590.001
  O       73.504     600.720     588.646
  C       74.412     602.174     590.349
  O       74.292     603.318     589.465
  C       74.307     602.740     591.761
  O       74.806     601.812     592.716
  C       75.108     604.032     591.609
  O       76.518     603.745     591.681
  C       74.731     604.484     590.184
  N       73.700     605.526     590.174
  C       74.141     606.829     589.950
  O       75.344     607.081     589.771
  N       73.215     607.847     589.903
  C       71.957     607.582     590.097
  N       71.067     608.608     589.974
  C       71.454     606.224     590.391
  C       72.380     605.260     590.408
  O       72.945     598.983     586.785
  O       72.803     598.415     589.309
  H       76.979     604.596     591.626
  H       72.553     597.487     589.050
  H       70.398     606.048     590.542
  H       72.090     604.225     590.599
  H       75.621     604.864     589.656
  H       74.877     604.778     592.389
  H       73.260     602.984     592.007
  H       75.412     601.723     590.186
  H       71.434     609.471     589.590
  H       73.473     600.259     590.642
  H       70.082     608.432     589.814
  H       72.338     601.544     590.131
  P       73.812     601.398     593.918
  C       74.581     598.924     594.132
  O       73.549     599.827     593.746
  O       72.425     602.076     593.509
  O       74.281     601.825     595.276
  H       72.296     602.904     594.011
  H       74.170     597.915     594.167
  H       74.982     599.189     595.115
  H       75.382     598.945     593.389
  H       69.359     600.750     587.537
  H       70.257     599.686     586.480
  H       70.832     601.309     586.782

 3  4  5  6  7  8  9  10  11  12  13  23  27  28  29  30  32 0
 6-311+G(2d,p)
 ****
 34  35 0
 6-311+G(2d,p)
 ****
 1  2  14  15  16  17  18  19  20  21  22  24  25  26 0
 3-21G
 ****
 31  33  36  37  38  39  40  41  42  43  44  45  46 0
 3-21G
 ****


