%nproc=1
%NoSave
%Mem=1900MB
#P OB98/GEN NMR

erre ene a

0 1
  C      166.779    -398.552    -327.266
  O      166.724    -397.523    -328.232
  H      166.418    -398.155    -326.313
  H      167.806    -398.902    -327.131
  H      166.135    -399.384    -327.562
  P      167.313    -397.819    -329.695
  C      165.189    -397.444    -331.130
  O      166.055    -398.388    -330.519
  C      165.011    -397.771    -332.610
  O      166.228    -397.524    -333.345
  C      164.667    -399.227    -332.909
  O      163.328    -399.567    -332.591
  C      164.937    -399.260    -334.404
  O      163.855    -398.618    -335.103
  C      166.233    -398.416    -334.494
  N      167.445    -399.233    -334.504
  C      167.650    -400.037    -335.632
  O      166.838    -400.039    -336.555
  N      168.757    -400.850    -335.672
  C      169.575    -400.876    -334.667
  N      170.630    -401.734    -334.738
  C      169.404    -400.034    -333.467
  C      168.330    -399.250    -333.449
  O      168.548    -398.660    -329.754
  O      167.498    -396.371    -330.350
  H      163.053    -399.143    -334.933
  H      167.872    -396.500    -331.256
  H      170.113    -400.100    -332.653
  H      168.127    -398.615    -332.593
  H      166.223    -397.787    -335.391
  H      165.027    -400.273    -334.804
  H      165.370    -399.903    -332.412
  H      164.250    -397.088    -333.011
  H      170.688    -402.326    -335.556
  H      165.622    -396.448    -330.997
  H      171.137    -402.013    -333.906
  H      164.205    -397.471    -330.651
  P      163.009    -401.098    -332.222
  C      163.374    -401.000    -329.645
  O      163.856    -401.441    -330.902
  O      163.763    -401.906    -333.377
  O      161.559    -401.452    -332.125
  H      163.157    -402.109    -334.117
  H      164.050    -401.309    -328.875
  H      162.409    -401.426    -329.464
  H      163.298    -399.933    -329.646

 6  7  8  9  10  11  12  13  14  15  16  26  30  31  32  33  35 0
 6-311+G(2d,p)
 ****
 37  38 0
 6-311+G(2d,p)
 ****
 1  2  3  4  5  17  18  19  20  21  22  23  24  25 0
 3-21G
 ****
 27  28  29  34  36  39  40  41  42  43  44  45  46 0
 3-21G
 ****


