%nproc=1
%NoSave
%Mem=1900MB
#P OB98/GEN NMR

erre ene a

0 1
  C      577.025    -891.870     183.303
  O      576.575    -891.910     181.959
  P      576.491    -893.330     181.224
  C      573.915    -893.610     181.530
  O      575.216    -894.110     181.819
  C      572.999    -894.740     181.075
  O      573.452    -895.250     179.787
  C      572.949    -895.930     182.044
  O      571.618    -896.480     181.991
  C      573.918    -896.910     181.416
  O      573.736    -898.250     181.854
  C      573.621    -896.680     179.933
  N      574.668    -897.190     179.048
  C      574.632    -898.550     178.749
  O      573.782    -899.330     179.175
  N      575.664    -899.010     177.973
  C      576.749    -898.290     177.562
  O      577.689    -898.790     176.964
  C      576.724    -896.860     177.905
  C      575.702    -896.390     178.628
  O      577.733    -894.140     181.827
  O      576.534    -893.270     179.732
  H      574.535    -898.750     181.604
  H      578.485    -894.120     181.196
  H      575.652    -900.000     177.729
  H      577.564    -896.260     177.576
  H      575.682    -895.340     178.912
  H      572.664    -897.140     179.667
  H      574.948    -896.620     181.667
  H      573.210    -895.680     183.075
  H      571.993    -894.330     180.917
  H      573.987    -892.870     180.734
  H      573.512    -893.110     182.417
  P      570.978    -897.050     183.349
  C      570.392    -894.570     183.956
  O      570.913    -895.820     184.370
  O      572.184    -897.950     183.896
  O      569.705    -897.810     183.142
  H      573.056    -897.510     183.805
  H      569.580    -894.690     183.238
  H      571.190    -893.980     183.512
  H      570.008    -894.030     184.834
  H      577.025    -890.858     183.649
  H      578.018    -892.266     183.359
  H      576.372    -892.456     183.915

 3  4  5  6  7  8  9  10  11  12  13  23  28  29  30  31  32 0
 6-311+G(2d,p)
 ****
 33  34 0
 6-311+G(2d,p)
 ****
 1  2  14  15  16  17  18  19  20  21  22  24  25  26 0
 3-21G
 ****
 27  35  36  37  38  39  40  41  42  43  44  45 0
 3-21G
 ****


