%nproc=1
%NoSave
%Mem=1900MB
#P OB98/GEN NMR

erre ene a

0 1
  C     -371.444    -591.679      12.799
  O     -372.873    -591.623      12.798
  P     -373.630    -592.546      11.720
  C     -375.777    -593.178      13.030
  O     -375.214    -592.413      11.970
  C     -375.769    -592.405      14.351
  O     -376.180    -591.022      14.140
  C     -376.692    -592.984      15.416
  O     -376.088    -592.766      16.699
  C     -377.932    -592.122      15.308
  O     -378.727    -592.205      16.490
  C     -377.282    -590.769      15.028
  N     -380.368    -586.803      15.958
  C     -379.559    -587.523      16.756
  N     -378.787    -588.582      16.441
  C     -378.870    -588.850      15.119
  C     -379.667    -588.204      14.183
  C     -380.435    -587.135      14.650
  N     -381.290    -586.413      13.837
  N     -379.521    -588.792      12.939
  C     -378.662    -589.783      13.134
  N     -378.218    -589.824      14.427
  O     -373.290    -594.034      12.218
  O     -373.186    -592.329      10.314
  H     -379.439    -591.536      16.430
  H     -372.654    -594.450      11.603
  H     -379.530    -587.221      17.802
  H     -378.336    -590.470      12.386
  H     -376.900    -590.292      15.937
  H     -378.545    -592.446      14.453
  H     -376.914    -594.058      15.293
  H     -374.732    -592.381      14.731
  H     -375.219    -594.113      13.157
  H     -381.834    -585.677      14.251
  H     -381.394    -586.682      12.867
  H     -376.795    -593.473      12.750
  P     -376.148    -593.988      17.739
  C     -373.622    -593.917      18.377
  O     -374.976    -593.731      18.801
  O     -375.617    -595.245      16.885
  O     -377.496    -594.226      18.317
  H     -375.978    -596.069      17.256
  H     -373.019    -593.113      18.812
  H     -373.529    -593.885      17.294
  H     -373.271    -594.871      18.753
  H     -371.062    -591.026      13.555
  H     -371.074    -591.372      11.843
  H     -371.126    -592.681      13.000

 3  4  5  6  7  8  9  10  11  12  22  25  29  30  31  32 0
 6-311+G(2d,p)
 ****
 33  36  37 0
 6-311+G(2d,p)
 ****
 1  2  13  14  15  16  17  18  19  20  21  23  24  26 0
 3-21G
 ****
 27  28  34  35  38  39  40  41  42  43  44  45  46  47  48 0
 3-21G
 ****


