%nproc=1
%NoSave
%Mem=1900MB
#P OB98/GEN NMR

erre ene a

0 1
  C      600.381     -42.309     895.061
  O      600.154     -41.290     896.022
  P      601.364     -40.967     897.045
  C      600.749     -43.055     898.487
  O      600.970     -41.659     898.433
  C      601.155     -43.596     899.859
  O      602.588     -43.484     900.031
  C      600.523     -42.844     901.036
  O      599.213     -43.318     901.269
  C      601.506     -43.168     902.156
  O      601.246     -44.476     902.712
  C      602.850     -43.137     901.419
  N      604.761     -39.630     904.531
  C      603.974     -40.733     904.811
  N      603.702     -40.963     906.117
  N      603.510     -41.548     903.899
  C      603.847     -41.191     902.642
  C      604.610     -40.101     902.233
  C      605.160     -39.250     903.257
  O      605.935     -38.318     903.065
  N      604.728     -40.058     900.862
  C      604.066     -41.125     900.448
  N      603.536     -41.851     901.490
  O      601.192     -39.403     897.317
  O      602.727     -41.323     896.535
  H      600.338     -44.494     903.073
  H      601.814     -38.883     896.768
  H      605.097     -39.056     905.280
  H      603.966     -41.421     899.421
  H      603.553     -43.887     901.808
  H      601.426     -42.456     902.988
  H      603.999     -40.366     906.868
  H      600.516     -41.766     900.845
  H      603.127     -41.768     906.342
  H      600.893     -44.659     899.897
  H      601.350     -43.546     897.714
  H      599.686     -43.264     898.290
  P      598.111     -42.252     901.751
  C      599.415     -41.527     903.875
  O      598.241     -42.112     903.336
  O      596.728     -43.029     901.542
  O      598.128     -40.967     900.997
  H      596.036     -42.400     901.252
  H      599.157     -41.037     904.826
  H      599.854     -40.777     903.198
  H      600.158     -42.315     904.075
  H      599.510     -42.424     894.450
  H      600.590     -43.231     895.562
  H      601.215     -42.040     894.446

 3  4  5  6  7  8  9  10  11  12  23  26  30  31 0
 6-311+G(2d,p)
 ****
 33  35  36  37  38 0
 6-311+G(2d,p)
 ****
 1  2  13  14  15  16  17  18  19  20  21  22  24  25 0
 3-21G
 ****
 27  28  29  32  34  39  40  41  42  43  44  45  46  47  48  49 0
 3-21G
 ****


