%nproc=1
%NoSave
%Mem=1900MB
#P OB98/GEN NMR

erre ene a

0 1
  C      -16.326    -201.329    -259.646
  O      -17.031    -200.429    -258.788
  P      -16.271    -199.769    -257.544
  C      -15.529    -197.593    -258.729
  O      -16.305    -198.173    -257.687
  C      -16.157    -196.269    -259.176
  O      -17.479    -196.467    -259.730
  C      -16.363    -195.293    -258.023
  O      -15.202    -194.733    -257.447
  C      -17.391    -194.332    -258.594
  O      -16.779    -193.327    -259.402
  C      -18.253    -195.278    -259.465
  N      -19.535    -195.607    -258.841
  C      -20.499    -194.604    -258.861
  O      -20.299    -193.485    -259.328
  N      -21.701    -194.921    -258.289
  C      -22.013    -196.102    -257.680
  O      -23.099    -196.325    -257.163
  C      -20.945    -197.116    -257.669
  C      -19.775    -196.826    -258.240
  O      -14.938    -200.350    -257.216
  O      -17.298    -200.024    -256.331
  H      -15.993    -193.006    -258.922
  H      -16.774    -200.276    -255.546
  H      -22.415    -194.210    -258.302
  H      -21.156    -198.062    -257.191
  H      -18.975    -197.558    -258.243
  H      -18.464    -194.818    -260.437
  H      -17.944    -193.815    -257.803
  H      -16.861    -195.838    -257.208
  H      -15.532    -195.835    -259.959
  H      -15.466    -198.284    -259.572
  H      -14.504    -197.447    -258.371
  P      -14.994    -194.577    -255.865
  C      -12.711    -195.766    -255.551
  O      -13.419    -194.546    -255.563
  O      -15.844    -195.419    -254.974
  O      -15.396    -193.035    -255.645
  H      -15.807    -192.947    -254.764
  H      -11.664    -195.559    -255.313
  H      -12.759    -196.247    -256.531
  H      -13.117    -196.435    -254.786
  H      -16.982    -201.672    -260.419
  H      -15.977    -202.165    -259.077
  H      -15.492    -200.823    -260.085

 3  4  5  6  7  8  9  10  11  12  13  23  28  29  30  31  32 0
 6-311+G(2d,p)
 ****
 33  34 0
 6-311+G(2d,p)
 ****
 1  2  14  15  16  17  18  19  20  21  22  24  25  26  27 0
 3-21G
 ****
 35  36  37  38  39  40  41  42  43  44  45 0
 3-21G
 ****


