%nproc=1
%NoSave
%Mem=1900MB
#P OB98/GEN NMR

erre ene a

0 1
  C     -127.654     450.985    1044.350
  O     -126.322     451.423    1044.199
  H     -128.196     451.708    1044.984
  H     -127.695     450.003    1044.841
  H     -128.160     450.935    1043.379
  P     -125.267     450.408    1043.538
  C     -125.681     450.819    1041.014
  O     -124.832     451.082    1042.149
  C     -125.385     451.781    1039.863
  O     -125.701     453.142    1040.258
  C     -123.903     451.829    1039.455
  O     -123.465     450.639    1038.818
  C     -123.816     453.159    1038.728
  O     -124.172     453.085    1037.348
  C     -124.856     454.010    1039.487
  N     -124.221     455.046    1040.314
  C     -124.349     456.356    1039.878
  O     -124.956     456.668    1038.852
  N     -123.737     457.308    1040.650
  C     -122.972     457.075    1041.760
  O     -122.411     457.964    1042.382
  C     -122.841     455.650    1042.160
  C     -123.454     454.714    1041.433
  O     -125.726     448.984    1043.412
  O     -123.960     450.585    1044.440
  H     -124.287     454.002    1037.031
  H     -123.336     449.835    1044.313
  H     -123.838     458.274    1040.357
  H     -122.240     455.427    1043.030
  H     -123.371     453.673    1041.711
  H     -125.517     454.528    1038.772
  H     -122.799     453.567    1038.767
  H     -123.305     451.923    1040.370
  H     -126.027     451.522    1039.011
  H     -126.725     450.942    1041.341
  H     -125.541     449.785    1040.688
  P     -121.917     450.368    1038.495
  C     -121.595     448.063    1039.682
  O     -121.706     448.763    1038.432
  O     -120.917     451.205    1039.212
  O     -121.854     450.766    1036.928
  H     -120.976     451.158    1036.752
  H     -121.460     447.018    1039.495
  H     -122.487     448.210    1040.254
  H     -120.755     448.439    1040.228

 6  7  8  9  10  11  12  13  14  15  16  26  31  32  33  34  35 0
 6-311+G(2d,p)
 ****
 36  37 0
 6-311+G(2d,p)
 ****
 1  2  3  4  5  17  18  19  20  21  22  23  24  25 0
 3-21G
 ****
 27  28  29  30  38  39  40  41  42  43  44  45 0
 3-21G
 ****


