%nproc=1
%NoSave
%Mem=1900MB
#P OB98/GEN NMR

erre ene a

0 1
  C      -94.403    -897.260     219.797
  O      -94.531    -896.000     220.410
  H      -94.588    -897.150     218.720
  H      -95.138    -897.960     220.202
  H      -93.397    -897.660     219.938
  P      -94.317    -895.900     222.001
  C      -91.788    -895.820     221.436
  O      -92.805    -896.390     222.262
  C      -90.806    -895.030     222.281
  O      -90.352    -895.820     223.392
  C      -89.556    -894.590     221.508
  O      -89.829    -893.410     220.758
  C      -88.601    -894.330     222.677
  O      -88.929    -893.080     223.308
  C      -88.936    -895.510     223.612
  N      -84.743    -898.050     224.895
  C      -85.189    -896.820     225.319
  N      -84.382    -896.140     226.150
  N      -86.313    -896.280     224.919
  C      -86.988    -897.030     224.019
  C      -86.645    -898.270     223.531
  C      -85.418    -898.880     224.013
  O      -84.993    -900.000     223.685
  N      -87.545    -898.720     222.585
  C      -88.444    -897.760     222.537
  N      -88.155    -896.710     223.392
  O      -95.335    -896.600     222.854
  O      -94.258    -894.330     222.291
  H      -89.875    -893.140     223.555
  H      -95.139    -893.980     222.524
  H      -83.867    -898.400     225.231
  H      -89.340    -897.770     221.927
  H      -88.827    -895.240     224.666
  H      -87.560    -894.280     222.368
  H      -83.403    -896.360     226.255
  H      -89.149    -895.390     220.905
  H      -84.666    -895.190     226.426
  H      -91.338    -894.170     222.702
  H      -92.281    -895.180     220.706
  H      -91.263    -896.620     220.897
  P      -88.845    -892.950     219.570
  C      -90.834    -892.910     217.912
  O      -89.544    -893.460     218.227
  O      -87.420    -893.390     219.742
  O      -89.028    -891.350     219.496
  H      -88.424    -890.860     220.098
  H      -91.187    -893.332     216.995
  H      -90.753    -891.848     217.808
  H      -91.522    -893.140     218.699

 6  7  8  9  10  11  12  13  14  15  26  29  33  34 0
 6-311+G(2d,p)
 ****
 36  38  39  40  41 0
 6-311+G(2d,p)
 ****
 1  2  3  4  5  16  17  18  19  20  21  22  23  24  25 0
 3-21G
 ****
 27  28  30  31  32  35  37  42  43  44  45  46  47 0
 3-21G
 ****
 48  49 0
 3-21G
 ****


