%nproc=1
%NoSave
%Mem=1900MB
#P OB98/GEN NMR

erre ene a

0 1
  C     -246.256    -421.271     253.392
  O     -247.419    -421.985     253.799
  P     -248.300    -421.395     254.998
  C     -250.289    -423.132     254.777
  O     -249.284    -422.521     255.560
  C     -251.443    -423.571     255.699
  O     -251.113    -424.810     256.365
  C     -251.777    -422.545     256.780
  O     -252.688    -421.567     256.318
  C     -252.337    -423.428     257.876
  O     -253.698    -423.799     257.574
  C     -251.404    -424.658     257.783
  N     -250.134    -424.624     258.532
  C     -250.136    -424.716     259.920
  O     -251.154    -424.827     260.604
  N     -248.909    -424.696     260.538
  C     -247.696    -424.759     259.917
  O     -246.633    -424.798     260.515
  C     -247.745    -424.818     258.448
  C     -248.932    -424.728     257.835
  O     -249.280    -420.356     254.282
  O     -247.500    -420.748     256.086
  H     -253.975    -424.443     258.250
  H     -249.093    -419.448     254.577
  H     -248.898    -424.688     261.546
  H     -246.807    -424.909     257.914
  H     -248.976    -424.770     256.748
  H     -251.932    -425.568     258.107
  H     -252.374    -422.903     258.828
  H     -250.863    -422.089     257.151
  H     -252.329    -423.756     255.066
  H     -249.884    -423.994     254.242
  H     -250.646    -422.423     254.029
  P     -252.241    -420.028     256.271
  C     -252.913    -419.226     253.925
  O     -253.286    -419.307     255.286
  O     -250.797    -419.774     255.976
  O     -252.673    -419.464     257.707
  H     -251.908    -419.482     258.330
  H     -253.767    -418.867     253.347
  H     -252.624    -420.213     253.553
  H     -252.086    -418.523     253.807
  H     -245.782    -421.792     252.587
  H     -245.578    -421.195     254.216
  H     -246.535    -420.290     253.068

 3  4  5  6  7  8  9  10  11  12  13  23  28  29  30  31  32 0
 6-311+G(2d,p)
 ****
 33  34 0
 6-311+G(2d,p)
 ****
 1  2  14  15  16  17  18  19  20  21  22  24  25  26  27 0
 3-21G
 ****
 35  36  37  38  39  40  41  42  43  44  45 0
 3-21G
 ****


