%nproc=1
%NoSave
%Mem=1900MB
#P OB98/GEN NMR

erre ene a

0 1
  C     -104.459    -175.309      -6.168
  O     -103.246    -176.040      -6.184
  H     -104.933    -175.394      -7.149
  H     -104.260    -174.254      -5.962
  H     -105.134    -175.718      -5.412
  P     -102.405    -176.060      -4.818
  C     -102.820    -178.524      -4.136
  O     -101.908    -177.580      -4.683
  C     -102.072    -179.746      -3.605
  O     -101.544    -180.528      -4.692
  C     -100.876    -179.412      -2.719
  O     -101.297    -179.115      -1.395
  C     -100.103    -180.721      -2.782
  O     -100.693    -181.680      -1.884
  C     -100.319    -181.165      -4.240
  N      -95.915    -182.731      -6.372
  C      -96.654    -183.239      -5.362
  N      -97.791    -182.746      -4.820
  C      -98.154    -181.605      -5.427
  C      -97.498    -180.967      -6.471
  C      -96.334    -181.582      -6.956
  N      -95.587    -181.062      -7.994
  N      -98.165    -179.816      -6.836
  C      -99.231    -179.788      -6.063
  N      -99.251    -180.830      -5.167
  O     -103.089    -175.479      -3.628
  O     -101.067    -175.302      -5.272
  H     -100.724    -181.273      -0.996
  H     -100.818    -175.561      -6.177
  H      -96.286    -184.164      -4.931
  H     -100.024    -179.050      -6.118
  H     -100.466    -182.250      -4.316
  H      -99.059    -180.602      -2.482
  H     -100.266    -178.614      -3.149
  H     -102.794    -180.376      -3.070
  H     -103.548    -178.833      -4.894
  H      -94.680    -181.472      -8.165
  H      -95.828    -180.147      -8.342
  H     -103.357    -178.028      -3.321
  P     -101.137    -177.635      -0.799
  C     -103.646    -177.178      -0.462
  O     -102.390    -177.395       0.176
  O     -100.926    -176.564      -1.815
  O      -99.906    -177.741       0.216
  H      -99.358    -176.933       0.173
  H     -104.402    -177.031       0.280
  H     -103.894    -178.030      -1.060
  H     -103.584    -176.310      -1.085

 6  7  8  9  10  11  12  13  14  15  25  28  32  33  34  35 0
 6-311+G(2d,p)
 ****
 36  39  40 0
 6-311+G(2d,p)
 ****
 1  2  3  4  5  16  17  18  19  20  21  22  23  24 0
 3-21G
 ****
 26  27  29  30  31  37  38  41  42  43  44  45  46  47 0
 3-21G
 ****
 48 0
 3-21G
 ****


