%nproc=1
%NoSave
%Mem=1900MB
#P OB98/GEN NMR

erre ene a

0 1
  C      890.880    1016.363    -114.373
  O      891.201    1015.055    -114.798
  H      889.886    1016.350    -113.920
  H      890.871    1017.051    -115.220
  H      891.600    1016.707    -113.620
  P      892.574    1014.827    -115.600
  C      891.485    1012.947    -117.009
  O      892.542    1013.314    -116.134
  C      891.525    1011.449    -117.320
  O      890.751    1010.739    -116.317
  C      890.941    1011.083    -118.696
  O      891.629    1009.911    -119.159
  C      889.505    1010.756    -118.332
  O      888.851    1010.077    -119.371
  C      889.723    1010.004    -117.015
  N      888.500    1009.881    -116.235
  C      887.962    1008.600    -116.110
  O      888.518    1007.639    -116.648
  N      886.803    1008.435    -115.395
  C      886.197    1009.472    -114.914
  N      885.039    1009.242    -114.232
  C      886.695    1010.860    -115.072
  C      887.845    1010.980    -115.731
  O      893.819    1015.214    -114.880
  O      892.379    1015.686    -116.943
  H      889.313    1009.230    -119.577
  H      892.907    1016.506    -116.882
  H      886.134    1011.692    -114.665
  H      888.292    1011.967    -115.898
  H      890.113    1008.991    -117.210
  H      888.938    1011.675    -118.158
  H      891.034    1011.888    -119.432
  H      892.568    1011.104    -117.226
  H      884.725    1008.276    -114.159
  H      891.611    1013.530    -117.926
  H      884.469    1009.971    -113.834
  H      890.522    1013.203    -116.562
  P      892.253    1009.787    -120.627
  C      892.079    1007.278    -121.198
  O      892.932    1008.341    -120.796
  O      893.148    1010.923    -121.004
  O      890.989    1009.717    -121.613
  H      891.231    1010.121    -122.466
  H      892.647    1006.374    -121.274
  H      891.646    1007.508    -122.149
  H      891.302    1007.151    -120.474

 6  7  8  9  10  11  12  13  14  15  16  26  30  31  32  33  35 0
 6-311+G(2d,p)
 ****
 37  38 0
 6-311+G(2d,p)
 ****
 1  2  3  4  5  17  18  19  20  21  22  23  24  25 0
 3-21G
 ****
 27  28  29  34  36  39  40  41  42  43  44  45  46 0
 3-21G
 ****


