%nproc=1
%NoSave
%Mem=1900MB
#P OB98/GEN NMR

erre ene a

0 1
  C      105.804     573.813     174.610
  O      104.388     574.042     174.630
  P      103.877     575.535     174.343
  C      101.759     576.382     173.039
  O      102.354     575.384     173.859
  C      101.065     575.732     171.848
  O      102.035     575.099     170.971
  C      100.076     574.631     172.217
  O       98.876     575.175     172.757
  C       99.917     573.922     170.881
  O       98.991     574.636     170.040
  C      101.347     574.017     170.294
  N      102.088     572.767     170.394
  C      102.130     571.987     169.238
  O      101.562     572.310     168.192
  N      102.843     570.819     169.330
  C      103.465     570.343     170.446
  O      104.089     569.294     170.462
  C      103.340     571.184     171.648
  C      102.669     572.339     171.572
  O      104.686     575.889     173.000
  O      104.107     576.462     175.488
  H      104.800     575.120     172.417
  H       98.104     574.485     170.418
  H      102.897     570.251     168.499
  H      103.802     570.825     172.565
  H      102.564     572.966     172.450
  H      101.302     574.302     169.230
  H       99.533     572.899     170.991
  H      100.530     573.952     172.947
  H      100.548     576.519     171.273
  H      102.532     577.068     172.678
  H      101.055     576.965     173.636
  P       98.405     574.621     174.189
  C       97.022     575.782     176.086
  O       97.243     575.601     174.704
  O       99.675     574.997     175.097
  O       98.070     573.162     174.180
  H      100.003     575.900     174.927
  H       96.466     576.705     176.230
  H       97.968     575.843     176.636
  H       96.431     574.943     176.473
  H      106.001     572.782     174.816
  H      106.274     574.421     175.354
  H      106.192     574.065     173.645

 3  4  5  6  7  8  9  10  11  12  13  24  28  29  30  31  32 0
 6-311+G(2d,p)
 ****
 33  34 0
 6-311+G(2d,p)
 ****
 1  2  14  15  16  17  18  19  20  21  22  23  25  26  27 0
 3-21G
 ****
 35  36  37  38  39  40  41  42  43  44  45 0
 3-21G
 ****


