%nproc=1
%NoSave
%Mem=1900MB
#P OB98/GEN NMR

erre ene a

0 1
  C       36.334    -702.193    -531.304
  O       35.080    -702.132    -531.954
  P       34.213    -703.455    -532.212
  C       32.893    -703.175    -530.027
  O       33.744    -704.023    -530.788
  C       31.986    -703.982    -529.110
  O       31.233    -704.947    -529.888
  C       32.732    -704.750    -528.008
  O       31.921    -704.683    -526.817
  C       32.775    -706.172    -528.541
  O       32.958    -707.126    -527.516
  C       31.430    -706.232    -529.269
  N       31.379    -707.302    -530.252
  C       30.335    -708.212    -530.152
  O       29.560    -708.167    -529.180
  N       30.176    -709.158    -531.129
  C       31.110    -709.310    -532.032
  N       30.886    -710.208    -533.017
  C       32.363    -708.523    -532.021
  C       32.412    -707.525    -531.139
  O       34.852    -704.464    -533.103
  O       32.850    -702.909    -532.844
  H       32.679    -703.383    -533.690
  H       33.834    -706.979    -527.097
  H       33.159    -708.768    -532.702
  H       33.290    -706.882    -531.074
  H       30.611    -706.385    -528.551
  H       33.605    -706.264    -529.249
  H       33.713    -704.331    -527.792
  H       31.256    -703.294    -528.660
  H       29.999    -710.696    -533.018
  H       32.271    -702.606    -530.732
  H       31.381    -710.164    -533.908
  H       33.491    -702.457    -529.447
  P       32.657    -704.398    -525.421
  C       32.633    -701.806    -525.475
  O       33.405    -702.988    -525.523
  O       33.881    -705.438    -525.475
  O       31.850    -704.644    -524.190
  H       34.156    -705.661    -524.564
  H       33.299    -700.957    -525.634
  H       32.157    -701.703    -524.499
  H       31.884    -701.802    -526.270
  H       36.746    -701.208    -531.231
  H       36.997    -702.817    -531.866
  H       36.208    -702.600    -530.323

 3  4  5  6  7  8  9  10  11  12  13  24  27  28  29  30  32 0
 6-311+G(2d,p)
 ****
 34  35 0
 6-311+G(2d,p)
 ****
 1  2  14  15  16  17  18  19  20  21  22  23  25  26 0
 3-21G
 ****
 31  33  36  37  38  39  40  41  42  43  44  45  46 0
 3-21G
 ****


