%nproc=1
%NoSave
%Mem=1900MB
#P OB98/GEN NMR

erre ene a

0 1
  C      129.145    -207.720       2.344
  O      130.126    -207.366       1.391
  H      129.231    -207.050       3.203
  H      129.300    -208.747       2.683
  H      128.147    -207.616       1.913
  P      130.212    -208.270       0.069
  C      128.170    -206.994      -0.906
  O      128.752    -208.252      -0.594
  C      128.120    -206.815      -2.419
  O      127.434    -207.934      -3.025
  C      127.357    -205.578      -2.874
  O      128.124    -204.395      -2.742
  C      127.067    -205.935      -4.322
  O      128.179    -205.620      -5.174
  C      126.840    -207.460      -4.250
  N      125.427    -207.811      -4.345
  C      124.920    -207.933      -5.636
  O      125.602    -207.760      -6.646
  N      123.587    -208.225      -5.730
  C      122.723    -208.364      -4.683
  O      121.524    -208.553      -4.838
  C      123.319    -208.239      -3.342
  C      124.620    -207.963      -3.235
  O      130.349    -209.753       0.653
  O      131.327    -207.925      -0.861
  H      131.274    -210.053       0.587
  H      128.339    -204.662      -5.071
  H      123.200    -208.305      -6.656
  H      122.660    -208.351      -2.488
  H      125.076    -207.845      -2.256
  H      127.368    -207.964      -5.070
  H      126.209    -205.385      -4.706
  H      126.407    -205.499      -2.332
  H      129.149    -206.796      -2.801
  H      128.776    -206.193      -0.471
  H      127.165    -206.949      -0.473
  P      127.356    -202.990      -2.663
  C      126.970    -203.136      -0.068
  O      126.413    -203.057      -1.367
  O      126.342    -203.123      -3.891
  O      128.261    -201.807      -2.717
  H      126.011    -204.029      -4.015
  H      126.183    -203.171       0.656
  H      127.581    -202.276       0.111
  H      127.567    -204.020       0.011

 6  7  8  9  10  11  12  13  14  15  16  27  31  32  33  34  35 0
 6-311+G(2d,p)
 ****
 36  37 0
 6-311+G(2d,p)
 ****
 1  2  3  4  5  17  18  19  20  21  22  23  24  25 0
 3-21G
 ****
 26  28  29  30  38  39  40  41  42  43  44  45 0
 3-21G
 ****


