%nproc=1
%NoSave
%Mem=1900MB
#P OB98/GEN NMR

erre ene a

0 1
  C      474.876    -507.804    -775.518
  O      474.582    -508.683    -774.435
  P      475.491    -508.580    -773.131
  C      473.733    -510.015    -771.882
  O      475.114    -509.839    -772.207
  C      473.514    -511.357    -771.200
  O      474.318    -511.431    -770.013
  C      472.081    -511.627    -770.753
  O      471.264    -512.077    -771.816
  C      472.295    -512.733    -769.726
  O      472.410    -513.999    -770.389
  C      473.642    -512.322    -769.069
  N      472.905    -512.907    -764.104
  C      473.000    -513.859    -765.093
  N      472.925    -515.155    -764.708
  N      473.164    -513.572    -766.351
  C      473.263    -512.244    -766.593
  C      473.167    -511.195    -765.704
  C      472.931    -511.519    -764.304
  O      472.770    -510.730    -763.390
  N      473.318    -509.975    -766.307
  C      473.550    -510.282    -767.565
  N      473.493    -511.645    -767.804
  O      474.864    -507.321    -772.323
  O      476.958    -508.379    -773.385
  H      471.548    -514.188    -770.800
  H      475.549    -506.919    -771.757
  H      472.785    -513.192    -763.133
  H      473.771    -509.563    -768.350
  H      474.294    -513.200    -768.940
  H      471.459    -512.818    -769.010
  H      472.930    -515.441    -763.730
  H      471.660    -510.754    -770.256
  H      473.040    -515.868    -765.415
  H      473.857    -512.148    -771.891
  H      473.126    -509.983    -772.804
  H      473.412    -509.190    -771.232
  P      469.724    -511.614    -771.777
  C      469.716    -512.220    -774.313
  O      469.043    -512.301    -773.065
  O      469.788    -510.055    -772.136
  O      469.033    -511.855    -770.461
  H      469.012    -509.590    -771.769
  H      470.799    -512.292    -774.179
  H      469.465    -511.283    -774.805
  H      469.392    -513.049    -774.945
  H      474.190    -507.984    -776.320
  H      475.876    -507.978    -775.858
  H      474.783    -506.790    -775.190

 3  4  5  6  7  8  9  10  11  12  23  26  30  31  33  0
 6-311+G(2d,p)
 ****
 35  36  37  38 0
 6-311+G(2d,p)
 ****
 1  2  13  14  15  16  17  18  19  20  21  22  24  25  27  28  29 0
 3-21G
 ****
 32  34  39  40  41  42  43  44  45  46  47  48  49 0
 3-21G
 ****


