%nproc=1
%NoSave
%Mem=1900MB
#P OB98/GEN NMR

erre ene a

0 1
  C      555.390     545.711     576.965
  O      554.109     545.112     576.981
  H      556.097     545.065     576.430
  H      555.331     546.670     576.444
  H      555.744     545.881     577.986
  P      553.994     543.669     577.673
  C      554.964     541.321     577.112
  O      554.864     542.688     576.744
  C      555.115     540.467     575.855
  O      553.826     540.326     575.196
  C      556.047     541.062     574.815
  O      557.416     540.802     575.092
  C      555.577     540.338     573.560
  O      556.107     539.000     573.557
  C      554.054     540.328     573.758
  N      552.284     542.372     569.410
  C      552.859     541.177     569.676
  N      553.290     540.693     570.860
  C      553.060     541.595     571.843
  C      552.475     542.840     571.723
  C      552.088     543.233     570.432
  N      551.527     544.460     570.154
  N      552.434     543.480     572.951
  C      552.958     542.612     573.794
  N      553.380     541.464     573.180
  O      552.488     543.218     577.359
  O      554.326     543.608     579.122
  H      557.085     539.077     573.492
  H      552.236     542.457     577.919
  H      552.993     540.512     568.825
  H      553.064     542.768     574.870
  H      553.591     539.413     573.345
  H      555.929     540.818     572.640
  H      555.868     542.142     574.681
  H      555.445     539.459     576.151
  H      554.052     541.031     577.646
  H      551.420     544.706     569.182
  H      551.509     545.165     570.878
  H      555.828     541.176     577.761
  P      558.450     542.023     574.952
  C      559.636     543.201     572.944
  O      558.592     542.316     573.366
  O      559.849     541.355     575.335
  O      558.132     543.207     575.801
  H      560.433     542.003     575.769
  H      559.610     543.301     571.879
  H      560.583     542.803     573.242
  H      559.494     544.161     573.396

 6  7  8  9  10  11  12  13  14  15  25  28  32  33  34  35 0
 6-311+G(2d,p)
 ****
 36  39  40 0
 6-311+G(2d,p)
 ****
 1  2  3  4  5  16  17  18  19  20  21  22  23  24 0
 3-21G
 ****
 26  27  29  30  31  37  38  41  42  43  44  45  46  47 0
 3-21G
 ****
 48 0
 3-21G
 ****


