%nproc=1
%NoSave
%Mem=1900MB
#P OB98/GEN NMR

erre ene a

0 1
  C      -87.809     390.643    -379.200
  O      -86.483     390.996    -378.848
  P      -86.145     392.464    -378.300
  C      -84.627     391.548    -376.435
  O      -85.797     392.299    -376.738
  C      -83.575     392.430    -375.776
  O      -83.031     393.335    -376.764
  C      -84.125     393.278    -374.632
  O      -83.129     393.393    -373.608
  C      -84.330     394.655    -375.250
  O      -84.270     395.690    -374.258
  C      -83.208     394.685    -376.291
  N      -81.617     398.601    -379.204
  C      -81.035     397.965    -378.166
  N      -81.527     396.947    -377.423
  C      -82.726     396.559    -377.885
  C      -83.439     397.115    -378.940
  C      -82.835     398.185    -379.616
  N      -83.420     398.825    -380.690
  N      -84.648     396.465    -379.101
  C      -84.658     395.532    -378.175
  N      -83.513     395.539    -377.420
  O      -87.172     393.502    -378.593
  O      -84.730     392.824    -378.948
  H      -84.921     395.462    -373.563
  H      -84.702     393.767    -379.196
  H      -80.046     398.322    -377.891
  H      -85.466     394.832    -378.004
  H      -82.256     395.015    -375.852
  H      -85.318     394.699    -375.721
  H      -85.055     392.877    -374.208
  H      -82.754     391.796    -375.420
  H      -84.221     391.146    -377.371
  H      -82.867     399.498    -381.185
  H      -84.244     398.406    -381.104
  H      -84.893     390.704    -375.787
  P      -83.652     393.222    -372.097
  C      -83.040     390.693    -372.050
  O      -84.045     391.675    -371.976
  O      -84.698     394.226    -371.748
  O      -82.281     393.377    -371.281
  H      -81.505     393.135    -371.830
  H      -83.503     389.704    -371.983
  H      -82.336     390.807    -371.216
  H      -82.497     390.767    -373.000
  H      -87.830     389.629    -379.541
  H      -88.155     391.289    -379.980
  H      -88.444     390.745    -378.345

 3  4  5  6  7  8  9  10  11  12  22  25  29  30  31  32 0
 6-311+G(2d,p)
 ****
 33  36  37 0
 6-311+G(2d,p)
 ****
 1  2  13  14  15  16  17  18  19  20  21  23  24  26 0
 3-21G
 ****
 27  28  34  35  38  39  40  41  42  43  44  45  46  47  48 0
 3-21G
 ****


