%nproc=1
%NoSave
%Mem=1900MB
#P OB98/GEN NMR

erre ene a

0 1
  C      480.488     113.786     806.908
  O      481.715     113.134     806.646
  H      480.292     113.745     807.983
  H      479.674     113.278     806.386
  H      480.530     114.835     806.601
  P      482.321     113.195     805.164
  C      484.447     111.991     805.987
  O      483.381     111.999     805.043
  C      485.099     110.610     806.018
  O      485.595     110.262     804.703
  C      486.300     110.523     806.949
  O      485.913     110.463     808.304
  C      486.979     109.265     806.414
  O      486.364     108.080     806.951
  C      486.721     109.378     804.895
  N      487.901     109.860     804.177
  C      488.874     108.907     803.884
  O      488.768     107.713     804.188
  N      490.001     109.377     803.271
  C      490.311     110.696     803.065
  O      491.423     111.082     802.749
  C      489.223     111.647     803.342
  C      488.093     111.197     803.885
  O      482.817     114.532     804.724
  O      481.107     112.689     804.244
  H      480.685     113.461     803.822
  H      486.582     108.076     807.903
  H      490.732     108.700     803.097
  H      489.396     112.700     803.117
  H      487.283     111.888     804.123
  H      486.429     108.404     804.485
  H      488.036     109.237     806.681
  H      486.966     111.379     806.785
  H      484.332     109.870     806.304
  H      484.043     112.228     806.975
  H      485.177     112.766     805.704
  P      486.655     111.361     809.405
  C      484.708     110.764     810.971
  O      486.120     110.937     810.850
  O      486.649     112.830     809.135
  O      488.152     110.802     809.411
  H      488.772     111.546     809.326
  H      484.468     110.483     811.975
  H      484.384     109.998     810.299
  H      484.214     111.682     810.730

 6  7  8  9  10  11  12  13  14  15  16  27  31  32  33  34  35 0
 6-311+G(2d,p)
 ****
 36  37 0
 6-311+G(2d,p)
 ****
 1  2  3  4  5  17  18  19  20  21  22  23  24  25 0
 3-21G
 ****
 26  28  29  30  38  39  40  41  42  43  44  45 0
 3-21G
 ****


