%nproc=1
%NoSave
%Mem=1900MB
#P OB98/GEN NMR

erre ene a

0 1
  C      345.538      75.609     -47.072
  O      345.740      76.935     -46.556
  P      345.732      78.253     -47.477
  C      348.248      78.107     -48.072
  O      346.910      78.105     -48.558
  C      349.138      79.024     -48.924
  O      349.025      78.678     -50.323
  C      348.776      80.504     -48.873
  O      349.145      81.112     -47.649
  C      349.532      81.030     -50.095
  O      350.898      81.326     -49.779
  C      349.460      79.844     -51.072
  N      348.577      80.084     -52.206
  C      349.158      80.690     -53.325
  O      350.329      81.057     -53.297
  N      348.387      80.866     -54.448
  C      347.119      80.573     -54.411
  N      346.402      80.760     -55.555
  C      346.442      80.062     -53.207
  C      347.223      79.846     -52.149
  O      345.783      79.528     -46.699
  O      344.390      78.151     -48.349
  H      344.101      79.050     -48.599
  H      351.257      81.839     -50.535
  H      345.373      79.875     -53.208
  H      346.806      79.461     -51.225
  H      350.459      79.587     -51.435
  H      349.090      81.958     -50.487
  H      347.697      80.614     -49.037
  H      350.181      78.875     -48.606
  H      346.903      81.100     -56.371
  H      348.641      77.083     -48.128
  H      345.416      80.542     -55.647
  H      348.259      78.418     -47.023
  P      348.049      81.116     -46.478
  C      346.759      83.292     -47.077
  O      346.756      81.882     -47.031
  O      348.663      82.141     -45.401
  O      347.784      79.783     -45.874
  H      348.485      81.803     -44.497
  H      346.088      83.627     -47.872
  H      347.762      83.690     -47.277
  H      346.401      83.687     -46.126
  H      345.587      74.903     -46.270
  H      346.299      75.386     -47.791
  H      344.577      75.551     -47.540

 3  4  5  6  7  8  9  10  11  12  13  24  27  28  29  30  32 0
 6-311+G(2d,p)
 ****
 34  35 0
 6-311+G(2d,p)
 ****
 1  2  14  15  16  17  18  19  20  21  22  23  25  26 0
 3-21G
 ****
 31  33  36  37  38  39  40  41  42  43  44  45  46 0
 3-21G
 ****


