%nproc=1
%NoSave
%Mem=1900MB
#P OB98/GEN NMR

erre ene a

0 1
  C     1155.667    -369.217     486.075
  O     1156.941    -368.986     486.635
  H     1155.633    -368.760     485.083
  H     1154.883    -368.768     486.691
  H     1155.494    -370.296     485.973
  P     1157.186    -369.548     488.125
  C     1158.455    -371.671     487.382
  O     1157.254    -371.148     487.935
  C     1159.474    -371.974     488.478
  O     1158.915    -372.988     489.358
  C     1160.820    -372.492     487.947
  O     1161.878    -371.959     488.731
  C     1160.711    -374.005     488.186
  O     1161.998    -374.615     488.304
  C     1159.857    -374.075     489.445
  N     1159.299    -378.260     492.310
  C     1159.958    -377.092     492.516
  N     1160.048    -376.030     491.701
  C     1159.309    -376.208     490.598
  C     1158.575    -377.338     490.244
  C     1158.592    -378.409     491.162
  N     1157.939    -379.603     490.941
  N     1157.992    -377.157     488.998
  C     1158.341    -375.943     488.617
  N     1159.157    -375.333     489.544
  O     1156.225    -369.065     489.158
  O     1158.723    -369.170     488.370
  H     1162.421    -374.616     487.419
  H     1159.268    -369.369     487.583
  H     1160.500    -377.040     493.469
  H     1158.058    -375.477     487.675
  H     1160.449    -373.951     490.361
  H     1160.201    -374.472     487.344
  H     1160.979    -372.266     486.895
  H     1159.619    -371.060     489.092
  H     1158.886    -370.958     486.665
  H     1157.976    -380.308     491.654
  H     1157.387    -379.711     490.102
  H     1158.202    -372.591     486.830
  P     1163.085    -371.216     487.974
  C     1162.229    -368.850     488.493
  O     1162.565    -369.781     487.475
  O     1163.813    -372.037     486.952
  O     1164.054    -370.829     489.195
  H     1164.992    -370.930     488.886
  H     1161.898    -367.936     488.045
  H     1163.089    -368.659     489.100
  H     1161.447    -369.253     489.101

 6  7  8  9  10  11  12  13  14  15  25  28  32  33  34  35 0
 6-311+G(2d,p)
 ****
 36  39  40 0
 6-311+G(2d,p)
 ****
 1  2  3  4  5  16  17  18  19  20  21  22  23  24 0
 3-21G
 ****
 26  27  29  30  31  37  38  41  42  43  44  45  46  47 0
 3-21G
 ****
 48 0
 3-21G
 ****


