%nproc=1
%NoSave
%Mem=1900MB
#P OB98/GEN NMR

erre ene a

0 1
  C     1191.260     145.520    -281.222
  O     1191.606     146.913    -281.201
  P     1190.828     147.980    -280.292
  C     1188.948     148.731    -281.892
  O     1189.273     148.012    -280.704
  C     1187.450     148.671    -282.193
  O     1186.680     149.096    -281.058
  C     1186.971     149.557    -283.340
  O     1187.323     148.994    -284.593
  C     1185.487     149.622    -283.058
  O     1184.806     148.463    -283.581
  C     1185.432     149.649    -281.522
  N     1185.224     150.986    -280.992
  C     1183.894     151.361    -280.761
  O     1182.971     150.594    -281.061
  N     1183.636     152.597    -280.207
  C     1184.638     153.409    -279.988
  N     1184.310     154.606    -279.439
  C     1186.035     153.083    -280.295
  C     1186.256     151.862    -280.789
  O     1191.483     149.322    -280.267
  O     1190.804     147.354    -278.816
  H     1185.002     148.467    -284.550
  H     1190.822     148.064    -278.168
  H     1186.809     153.811    -280.126
  H     1187.265     151.549    -281.033
  H     1184.648     148.983    -281.153
  H     1185.023     150.502    -283.535
  H     1187.429     150.549    -283.227
  H     1187.196     147.605    -282.395
  H     1183.335     154.800    -279.236
  H     1189.494     148.282    -282.733
  H     1185.001     155.323    -279.220
  H     1189.273     149.758    -281.780
  P     1188.632     149.538    -285.379
  C     1187.504     151.131    -287.028
  O     1188.312     151.000    -285.870
  O     1189.170     148.605    -286.409
  O     1189.702     149.759    -284.202
  H     1190.588     149.598    -284.556
  H     1187.043     152.127    -287.019
  H     1186.711     150.368    -287.020
  H     1188.130     151.028    -287.909
  H     1191.909     145.001    -281.896
  H     1190.247     145.409    -281.547
  H     1191.366     145.111    -280.239

 3  4  5  6  7  8  9  10  11  12  13  23  27  28  29  30  32 0
 6-311+G(2d,p)
 ****
 34  35 0
 6-311+G(2d,p)
 ****
 1  2  14  15  16  17  18  19  20  21  22  24  25  26 0
 3-21G
 ****
 31  33  36  37  38  39  40  41  42  43  44  45  46 0
 3-21G
 ****


