%nproc=1
%NoSave
%Mem=1900MB
#P OB98/GEN NMR

erre ene a

0 1
  C      155.777      62.107      71.552
  O      154.483      62.661      71.691
  H      156.457      62.630      72.230
  H      156.130      62.239      70.525
  H      155.766      61.044      71.808
  P      153.293      61.928      70.910
  C      153.155      60.870      68.509
  O      153.703      61.872      69.357
  C      153.264      61.306      67.050
  O      152.376      62.406      66.765
  C      154.635      61.836      66.665
  O      155.614      60.822      66.596
  C      154.316      62.480      65.324
  O      154.231      61.496      64.284
  C      152.923      63.098      65.608
  N      152.983      64.537      65.817
  C      152.608      65.327      64.723
  O      152.245      64.800      63.671
  N      152.683      66.694      64.842
  C      153.070      67.224      65.960
  N      153.131      68.583      66.009
  C      153.449      66.430      67.145
  C      153.388      65.107      67.003
  O      152.131      63.026      70.930
  O      152.894      60.596      71.460
  H      155.145      61.189      64.122
  H      152.407      63.892      70.584
  H      153.758      66.916      68.059
  H      153.649      64.450      67.822
  H      152.238      62.902      64.772
  H      155.080      63.199      65.021
  H      154.940      62.631      67.356
  H      152.969      60.456      66.419
  H      152.884      69.094      65.171
  H      152.114      60.661      68.774
  H      153.450      69.105      66.813
  H      153.727      59.951      68.672
  P      157.136      61.130      66.994
  C      158.920      62.785      66.152
  O      157.718      62.085      65.842
  O      157.972      59.928      67.284
  O      156.996      62.139      68.231
  H      156.523      62.967      68.030
  H      159.209      63.385      65.315
  H      159.696      62.082      66.372
  H      158.757      63.414      67.002

 6  7  8  9  10  11  12  13  14  15  16  26  30  31  32  33  35 0
 6-311+G(2d,p)
 ****
 37  38 0
 6-311+G(2d,p)
 ****
 1  2  3  4  5  17  18  19  20  21  22  23  24  25 0
 3-21G
 ****
 27  28  29  34  36  39  40  41  42  43  44  45  46 0
 3-21G
 ****


