%nproc=1
%NoSave
%Mem=1900MB
#P OB98/GEN NMR

erre ene a

0 1
  C     -167.159     265.018     107.341
  O     -166.131     264.468     106.533
  P     -166.593     263.608     105.251
  C     -168.027     261.446     104.930
  O     -167.364     262.325     105.825
  C     -167.582     260.006     105.205
  O     -166.218     259.809     104.783
  C     -167.636     259.607     106.673
  O     -168.955     259.247     107.046
  C     -166.650     258.444     106.707
  O     -167.268     257.231     106.244
  C     -165.564     258.920     105.727
  N     -161.422     258.301     108.566
  C     -162.429     257.399     108.249
  N     -162.284     256.141     108.726
  N     -163.479     257.708     107.533
  C     -163.498     259.003     107.138
  C     -162.573     259.989     107.400
  C     -161.389     259.622     108.149
  O     -160.430     260.353     108.375
  N     -162.947     261.189     106.853
  C     -164.081     260.917     106.234
  N     -164.446     259.602     106.358
  O     -165.215     263.022     104.696
  O     -167.356     264.373     104.216
  H     -168.037     257.023     106.808
  H     -164.889     263.558     103.948
  H     -160.632     258.004     109.110
  H     -164.657     261.633     105.665
  H     -165.140     258.087     105.146
  H     -166.282     258.243     107.723
  H     -161.515     255.842     109.305
  H     -167.267     260.425     107.306
  H     -163.014     255.474     108.506
  H     -168.218     259.338     104.602
  H     -167.759     261.714     103.903
  H     -169.108     261.551     105.056
  P     -169.379     259.454     108.577
  C     -169.053     258.133     110.794
  O     -168.820     258.192     109.398
  O     -170.964     259.227     108.556
  O     -169.025     260.790     109.143
  H     -171.390     259.829     109.202
  H     -169.107     257.084     111.090
  H     -169.982     258.634     111.069
  H     -168.218     258.610     111.313
  H     -166.722     265.562     108.153
  H     -167.769     264.229     107.728
  H     -167.761     265.678     106.752

 3  4  5  6  7  8  9  10  11  12  23  26  30  31 0
 6-311+G(2d,p)
 ****
 33  35  36  37  38 0
 6-311+G(2d,p)
 ****
 1  2  13  14  15  16  17  18  19  20  21  22  24  25 0
 3-21G
 ****
 27  28  29  32  34  39  40  41  42  43  44  45  46  47  48  49 0
 3-21G
 ****


