%nproc=1
%NoSave
%Mem=1900MB
#P OB98/GEN NMR

erre ene a

0 1
  C     -366.799     560.242    -426.127
  O     -365.790     559.647    -425.323
  P     -365.418     558.090    -425.483
  C     -362.996     558.846    -426.009
  O     -363.837     558.015    -425.205
  C     -361.939     559.505    -425.119
  O     -362.547     560.534    -424.309
  C     -361.254     558.562    -424.135
  O     -360.297     557.748    -424.784
  C     -360.700     559.551    -423.127
  O     -359.475     560.137    -423.619
  C     -361.806     560.625    -423.077
  N     -362.680     560.470    -421.919
  C     -362.074     560.428    -420.667
  O     -360.844     560.514    -420.556
  N     -362.858     560.308    -419.552
  C     -364.150     560.224    -419.672
  N     -364.890     560.178    -418.528
  C     -364.842     560.214    -420.971
  C     -364.065     560.345    -422.059
  O     -365.852     557.472    -426.775
  O     -366.031     557.392    -424.192
  H     -358.806     559.427    -423.671
  H     -366.974     557.101    -424.303
  H     -365.915     560.117    -421.019
  H     -364.476     560.353    -423.036
  H     -361.360     561.624    -423.061
  H     -360.459     559.105    -422.150
  H     -362.000     557.913    -423.645
  H     -361.187     559.976    -425.777
  H     -364.394     560.369    -417.665
  H     -363.614     559.627    -426.471
  H     -365.872     560.390    -418.528
  H     -362.529     558.247    -426.790
  P     -359.902     556.350    -424.096
  C     -361.385     555.361    -425.968
  O     -360.217     555.208    -425.174
  O     -361.027     556.171    -422.965
  O     -358.520     556.324    -423.520
  H     -360.682     556.425    -422.085
  H     -361.333     554.646    -426.794
  H     -361.442     556.371    -426.389
  H     -362.271     555.151    -425.384
  H     -366.896     561.276    -425.871
  H     -367.731     559.744    -425.957
  H     -366.531     560.154    -427.159

 3  4  5  6  7  8  9  10  11  12  13  23  27  28  29  30  32 0
 6-311+G(2d,p)
 ****
 34  35 0
 6-311+G(2d,p)
 ****
 1  2  14  15  16  17  18  19  20  21  22  24  25  26 0
 3-21G
 ****
 31  33  36  37  38  39  40  41  42  43  44  45  46 0
 3-21G
 ****


