%nproc=1
%NoSave
%Mem=1900MB
#P OB98/GEN NMR

erre ene a

0 1
  C      930.304    -896.950     277.204
  O      930.245    -897.020     275.788
  P      929.561    -898.330     275.132
  C      927.423    -896.990     274.437
  O      927.963    -898.060     275.195
  C      926.903    -897.510     273.094
  O      925.787    -898.400     273.290
  C      926.426    -896.420     272.152
  O      927.507    -895.820     271.473
  C      925.495    -897.190     271.234
  O      926.234    -897.900     270.212
  C      924.849    -898.190     272.213
  N      919.840    -898.120     271.490
  C      920.855    -898.540     270.630
  N      920.481    -899.020     269.434
  N      922.133    -898.450     270.940
  C      922.342    -897.910     272.155
  C      921.423    -897.450     273.082
  C      920.031    -897.600     272.764
  O      919.096    -897.350     273.506
  N      922.034    -896.990     274.224
  C      923.321    -897.150     273.977
  N      923.577    -897.740     272.755
  O      929.793    -899.440     276.272
  O      930.087    -898.720     273.804
  H      925.633    -898.500     269.741
  H      930.563    -900.000     276.042
  H      918.874    -898.220     271.213
  H      924.131    -896.890     274.649
  H      924.658    -899.160     271.748
  H      924.781    -896.550     270.702
  H      919.521    -899.090     269.131
  H      925.839    -895.670     272.708
  H      921.216    -899.330     268.815
  H      927.716    -898.090     272.627
  H      928.199    -896.230     274.267
  H      926.615    -896.540     275.012
  P      927.307    -894.330     270.885
  C      929.554    -893.500     271.931
  O      928.148    -893.320     271.808
  O      925.785    -894.010     271.265
  O      927.569    -894.200     269.419
  H      925.389    -893.470     270.526
  H      930.000    -892.530     272.126
  H      929.974    -893.940     271.009
  H      929.767    -894.170     272.768
  H      930.778    -896.037     277.496
  H      930.866    -897.780     277.579
  H      929.312    -896.981     277.604

 3  4  5  6  7  8  9  10  11  12  23  26  30  31 0
 6-311+G(2d,p)
 ****
 33  35  36  37  38 0
 6-311+G(2d,p)
 ****
 1  2  13  14  15  16  17  18  19  20  21  22  24  25 0
 3-21G
 ****
 27  28  29  32  34  39  40  41  42  43  44  45  46  47  48  49 0
 3-21G
 ****


