%nproc=1
%NoSave
%Mem=1900MB
#P OB98/GEN NMR

erre ene a

0 1
  C     -392.959    -327.356    -490.951
  O     -392.848    -328.345    -489.947
  H     -392.348    -326.495    -490.664
  H     -393.997    -327.032    -491.052
  H     -392.597    -327.740    -491.913
  P     -393.495    -329.790    -490.199
  C     -391.901    -331.039    -488.604
  O     -393.240    -330.653    -488.878
  C     -391.497    -330.631    -487.182
  O     -391.437    -329.174    -487.110
  C     -392.486    -331.100    -486.082
  O     -391.722    -331.306    -484.889
  C     -393.383    -329.885    -485.965
  O     -394.222    -329.924    -484.842
  C     -392.316    -328.771    -486.025
  N     -392.829    -327.422    -486.239
  C     -393.633    -326.868    -485.248
  O     -393.939    -327.451    -484.194
  N     -394.099    -325.602    -485.486
  C     -393.822    -324.851    -486.588
  O     -394.241    -323.702    -486.739
  C     -392.965    -325.488    -487.613
  C     -392.508    -326.720    -487.387
  O     -393.109    -330.455    -491.481
  O     -395.075    -329.501    -490.141
  H     -395.435    -329.469    -491.043
  H     -394.803    -329.134    -484.845
  H     -394.679    -325.199    -484.777
  H     -392.732    -324.920    -488.502
  H     -391.871    -327.215    -488.111
  H     -391.714    -328.793    -485.111
  H     -394.049    -329.828    -486.842
  H     -393.009    -332.026    -486.345
  H     -390.483    -331.004    -486.981
  H     -391.241    -330.538    -489.326
  H     -391.797    -332.123    -488.724
  P     -390.972    -332.671    -484.540
  C     -389.158    -331.280    -483.329
  O     -390.010    -332.418    -483.271
  O     -390.271    -333.304    -485.705
  O     -392.124    -333.644    -483.962
  H     -391.859    -334.576    -484.114
  H     -388.575    -331.225    -482.433
  H     -389.751    -330.395    -483.424
  H     -388.507    -331.365    -484.174

 6  7  8  9  10  11  12  13  14  15  16  27  31  32  33  34  35 0
 6-311+G(2d,p)
 ****
 36  37 0
 6-311+G(2d,p)
 ****
 1  2  3  4  5  17  18  19  20  21  22  23  24  25 0
 3-21G
 ****
 26  28  29  30  38  39  40  41  42  43  44  45 0
 3-21G
 ****


