%nproc=1
%NoSave
%Mem=1900MB
#P OB98/GEN NMR

erre ene a

0 1
  C      137.566    -247.868     156.864
  O      138.689    -248.110     156.000
  P      139.624    -246.871     155.564
  C      141.792    -248.324     155.499
  O      140.952    -247.405     154.821
  C      143.107    -248.555     154.723
  O      142.857    -249.399     153.568
  C      143.770    -247.271     154.201
  O      145.188    -247.486     154.221
  C      143.273    -247.198     152.767
  O      144.068    -246.367     151.932
  C      143.308    -248.688     152.398
  N      142.506    -249.039     151.221
  C      143.037    -248.761     149.963
  O      144.115    -248.197     149.767
  N      142.266    -249.148     148.891
  C      141.025    -249.723     148.963
  O      140.373    -250.013     147.966
  C      140.498    -249.960     150.311
  C      141.254    -249.614     151.363
  O      140.201    -246.377     156.975
  O      138.923    -245.753     154.868
  H      144.098    -245.485     152.355
  H      140.136    -245.404     157.032
  H      142.641    -248.971     147.971
  H      139.525    -250.416     150.407
  H      140.893    -249.788     152.369
  H      144.345    -248.998     152.225
  H      142.255    -246.799     152.752
  H      143.512    -246.386     154.789
  H      143.794    -249.106     155.378
  H      141.275    -249.275     155.620
  H      142.020    -247.928     156.499
  P      146.053    -246.804     155.392
  C      147.907    -248.651     155.569
  O      147.563    -247.322     155.230
  O      145.521    -247.630     156.664
  O      145.865    -245.326     155.523
  H      145.470    -248.590     156.493
  H      147.137    -249.363     155.246
  H      148.036    -248.729     156.649
  H      148.850    -248.904     155.077
  H      137.056    -248.790     157.053
  H      136.895    -247.180     156.393
  H      137.910    -247.454     157.789

 3  4  5  6  7  8  9  10  11  12  13  23  28  29  30  31  32 0
 6-311+G(2d,p)
 ****
 33  34 0
 6-311+G(2d,p)
 ****
 1  2  14  15  16  17  18  19  20  21  22  24  25  26 0
 3-21G
 ****
 27  35  36  37  38  39  40  41  42  43  44  45 0
 3-21G
 ****


