%nproc=1
%NoSave
%Mem=1900MB
#P OB98/GEN NMR

erre ene a

0 1
  C     -107.724      75.847     -18.920
  O     -107.189      75.564     -20.215
  P     -106.749      74.043     -20.481
  C     -104.268      74.414     -21.125
  O     -105.568      74.053     -21.568
  C     -103.365      74.810     -22.298
  O     -103.054      73.655     -23.131
  C     -103.980      75.870     -23.219
  O     -102.902      76.692     -23.690
  C     -104.513      75.044     -24.374
  O     -104.738      75.846     -25.532
  C     -103.396      74.009     -24.491
  N     -102.736      71.568     -28.860
  C     -102.274      72.803     -28.452
  N     -101.475      73.466     -29.319
  N     -102.566      73.343     -27.298
  C     -103.341      72.548     -26.519
  C     -103.849      71.303     -26.803
  C     -103.544      70.731     -28.098
  O     -103.924      69.641     -28.505
  N     -104.569      70.799     -25.743
  C     -104.544      71.778     -24.855
  N     -103.772      72.833     -25.253
  O     -107.999      73.438     -21.278
  O     -106.463      73.275     -19.233
  H     -105.632      76.240     -25.448
  H     -108.562      72.916     -20.676
  H     -102.494      71.207     -29.768
  H     -105.047      71.763     -23.902
  H     -102.500      74.418     -24.976
  H     -105.461      74.568     -24.094
  H     -101.172      73.086     -30.203
  H     -104.750      76.489     -22.748
  H     -101.090      74.355     -29.028
  H     -102.418      75.181     -21.890
  H     -103.811      73.578     -20.590
  H     -104.352      75.230     -20.398
  P     -102.757      78.161     -23.073
  C     -103.169      79.513     -25.241
  O     -102.246      79.124     -24.245
  O     -101.480      78.027     -22.115
  O     -103.951      78.638     -22.309
  H     -101.628      78.546     -21.301
  H     -102.854      80.472     -25.660
  H     -104.180      79.619     -24.839
  H     -103.177      78.764     -26.038
  H     -107.980      76.884     -18.859
  H     -106.993      75.616     -18.174
  H     -108.599      75.253     -18.758

 3  4  5  6  7  8  9  10  11  12  23  26  30  31 0
 6-311+G(2d,p)
 ****
 33  35  36  37  38 0
 6-311+G(2d,p)
 ****
 1  2  13  14  15  16  17  18  19  20  21  22  24  25 0
 3-21G
 ****
 27  28  29  32  34  39  40  41  42  43  44  45  46  47  48  49 0
 3-21G
 ****


