%nproc=1
%NoSave
%Mem=1900MB
#P OB98/GEN NMR

erre ene a

0 1
  C        9.684      24.209     -42.092
  O        9.286      24.598     -43.388
  H        8.904      24.504     -41.385
  H       10.613      24.720     -41.824
  H        9.827      23.127     -42.025
  P       10.001      23.920     -44.648
  C       11.914      25.635     -44.884
  O       11.562      24.290     -44.584
  C       13.428      25.849     -44.853
  O       13.960      25.467     -43.565
  C       14.158      24.987     -45.884
  O       14.217      25.527     -47.191
  C       15.552      24.883     -45.271
  O       16.359      26.014     -45.638
  C       15.263      24.894     -43.769
  N       18.079      21.402     -41.324
  C       18.461      22.632     -41.823
  N       19.770      22.943     -41.707
  N       17.633      23.464     -42.398
  C       16.377      22.978     -42.530
  C       15.884      21.770     -42.088
  C       16.797      20.878     -41.403
  O       16.511      19.775     -40.949
  N       14.554      21.625     -42.399
  C       14.264      22.708     -43.091
  N       15.331      23.571     -43.175
  O        9.489      24.799     -45.889
  O        9.694      22.468     -44.854
  H       15.972      26.811     -45.233
  H        9.507      24.265     -46.703
  H       18.752      20.814     -40.866
  H       13.296      22.928     -43.529
  H       15.978      25.527     -43.228
  H       16.081      23.991     -45.621
  H       20.463      22.288     -41.379
  H       13.722      23.984     -45.919
  H       20.134      23.701     -42.287
  H       13.645      26.915     -44.990
  H       11.433      26.261     -44.130
  H       11.507      25.926     -45.856
  P       14.087      24.563     -48.463
  C       16.589      23.850     -48.433
  O       15.238      23.457     -48.331
  O       14.586      25.493     -49.665
  O       12.718      24.027     -48.707
  H       13.822      25.896     -50.119
  H       17.219      22.992     -48.322
  H       16.813      24.559     -47.664
  H       16.759      24.297     -49.390

 6  7  8  9  10  11  12  13  14  15  26  29  33  34 0
 6-311+G(2d,p)
 ****
 36  38  39  40  41 0
 6-311+G(2d,p)
 ****
 1  2  3  4  5  16  17  18  19  20  21  22  23  24  25 0
 3-21G
 ****
 27  28  30  31  32  35  37  42  43  44  45  46  47 0
 3-21G
 ****
 48  49 0
 3-21G
 ****


