%nproc=1
%NoSave
%Mem=1900MB
#P OB98/GEN NMR

erre ene a

0 1
  C      483.608     -47.692     766.093
  O      484.263     -48.253     764.973
  H      482.784     -48.349     766.383
  H      483.196     -46.711     765.834
  H      484.292     -47.594     766.939
  P      485.612     -47.571     764.446
  C      486.580     -49.946     764.178
  O      486.384     -48.672     763.573
  C      487.577     -50.761     763.358
  O      488.713     -49.939     762.999
  C      488.149     -51.957     764.103
  O      487.223     -53.019     764.186
  C      489.389     -52.243     763.264
  O      489.057     -53.017     762.099
  C      489.850     -50.824     762.868
  N      490.975     -50.366     763.682
  C      492.247     -50.662     763.194
  O      492.444     -51.262     762.133
  N      493.291     -50.293     763.995
  C      493.188     -49.802     765.268
  O      494.134     -49.719     766.034
  C      491.825     -49.457     765.704
  C      490.798     -49.760     764.910
  O      486.440     -46.888     765.483
  O      485.097     -46.535     763.334
  H      485.098     -45.634     763.714
  H      489.878     -53.068     761.572
  H      494.213     -50.544     763.670
  H      491.703     -48.990     766.680
  H      489.778     -49.538     765.223
  H      490.144     -50.800     761.810
  H      490.135     -52.805     763.832
  H      488.468     -51.655     765.109
  H      487.080     -51.082     762.426
  H      485.620     -50.471     764.211
  H      486.942     -49.799     765.207
  P      487.613     -54.385     764.923
  C      485.242     -54.753     765.835
  O      486.303     -55.291     765.046
  O      488.390     -54.226     766.191
  O      488.481     -55.176     763.835
  H      489.312     -55.475     764.246
  H      484.422     -55.441     765.847
  H      484.921     -53.823     765.415
  H      485.587     -54.593     766.835

 6  7  8  9  10  11  12  13  14  15  16  27  31  32  33  34  35 0
 6-311+G(2d,p)
 ****
 36  37 0
 6-311+G(2d,p)
 ****
 1  2  3  4  5  17  18  19  20  21  22  23  24  25 0
 3-21G
 ****
 26  28  29  30  38  39  40  41  42  43  44  45 0
 3-21G
 ****


