%nproc=1
%NoSave
%Mem=1900MB
#P OB98/GEN NMR

erre ene a

0 1
  C     -365.661     578.042    -366.177
  O     -364.612     578.261    -367.099
  H     -365.231     577.703    -365.236
  H     -366.348     577.278    -366.547
  H     -366.206     578.976    -365.992
  P     -364.986     578.733    -368.586
  C     -363.197     580.531    -369.062
  O     -363.602     579.187    -369.270
  C     -361.671     580.614    -368.965
  O     -361.233     580.223    -367.652
  C     -360.934     579.709    -369.951
  O     -360.866     580.317    -371.232
  C     -359.571     579.614    -369.280
  O     -358.836     580.834    -369.505
  C     -359.973     579.504    -367.792
  N     -357.650     575.427    -365.851
  C     -357.112     576.588    -366.363
  N     -355.768     576.666    -366.390
  N     -357.826     577.590    -366.815
  C     -359.162     577.344    -366.797
  C     -359.813     576.225    -366.332
  C     -359.018     575.157    -365.770
  O     -359.447     574.120    -365.278
  N     -361.167     576.298    -366.559
  C     -361.340     577.494    -367.109
  N     -360.149     578.160    -367.288
  O     -366.086     579.745    -368.701
  O     -365.340     577.371    -369.352
  H     -358.726     580.925    -370.478
  H     -366.292     577.174    -369.301
  H     -357.051     574.685    -365.528
  H     -362.286     577.909    -367.396
  H     -359.241     580.000    -367.136
  H     -358.972     578.790    -369.663
  H     -355.162     575.877    -366.188
  H     -361.378     578.708    -369.996
  H     -355.349     577.496    -366.810
  H     -361.384     581.667    -369.105
  H     -363.653     580.876    -368.123
  H     -363.541     581.174    -369.876
  P     -360.666     579.450    -372.572
  C     -361.728     580.937    -374.398
  O     -360.535     580.519    -373.758
  O     -361.691     578.393    -372.786
  O     -359.171     578.892    -372.459
  H     -359.104     578.060    -371.931
  H     -361.492     581.646    -375.164
  H     -362.378     581.391    -373.679
  H     -362.215     580.090    -374.834

 6  7  8  9  10  11  12  13  14  15  26  29  33  34 0
 6-311+G(2d,p)
 ****
 36  38  39  40  41 0
 6-311+G(2d,p)
 ****
 1  2  3  4  5  16  17  18  19  20  21  22  23  24  25 0
 3-21G
 ****
 27  28  30  31  32  35  37  42  43  44  45  46  47 0
 3-21G
 ****
 48  49 0
 3-21G
 ****


