%nproc=1
%NoSave
%Mem=1900MB
#P OB98/GEN NMR

erre ene a

0 1
  C      -20.423     173.318      13.688
  O      -20.656     174.682      13.324
  P      -21.533     175.005      12.021
  C      -23.880     175.905      12.599
  O      -22.521     176.229      12.344
  C      -24.519     176.920      13.565
  O      -23.831     176.883      14.843
  C      -24.460     178.365      13.035
  O      -25.727     179.026      13.072
  C      -23.356     179.001      13.867
  O      -23.464     180.415      13.945
  C      -23.435     178.228      15.188
  N      -22.168     178.261      15.925
  C      -21.773     179.499      16.428
  O      -22.386     180.542      16.216
  N      -20.596     179.504      17.132
  C      -19.765     178.443      17.317
  O      -18.699     178.514      17.917
  C      -20.203     177.175      16.708
  C      -21.369     177.146      16.050
  O      -22.174     173.827      11.361
  O      -20.460     175.686      11.031
  H      -24.386     180.640      14.189
  H      -20.645     175.373      10.122
  H      -20.304     180.389      17.518
  H      -19.559     176.314      16.813
  H      -21.709     176.228      15.586
  H      -24.202     178.649      15.845
  H      -22.391     178.779      13.390
  H      -24.178     178.395      11.976
  H      -25.558     176.611      13.720
  H      -23.944     174.911      13.045
  H      -24.425     175.845      11.649
  P      -26.726     179.137      11.827
  C      -28.250     177.153      12.508
  O      -28.147     178.544      12.269
  O      -26.204     178.618      10.523
  O      -27.004     180.717      11.723
  H      -27.020     180.980      10.778
  H      -29.301     176.859      12.432
  H      -27.901     176.931      13.524
  H      -27.663     176.568      11.788
  H      -19.825     173.283      14.574
  H      -19.911     172.819      12.892
  H      -21.359     172.833      13.870

 3  4  5  6  7  8  9  10  11  12  13  23  28  29  30  31  32 0
 6-311+G(2d,p)
 ****
 33  34 0
 6-311+G(2d,p)
 ****
 1  2  14  15  16  17  18  19  20  21  22  24  25  26  27 0
 3-21G
 ****
 35  36  37  38  39  40  41  42  43  44  45 0
 3-21G
 ****


