%nproc=1
%NoSave
%Mem=1900MB
#P OB98/GEN NMR

erre ene a

0 1
  C       46.932    -303.125      98.050
  O       47.944    -303.566      97.139
  P       49.131    -304.465      97.732
  C       47.907    -306.763      97.759
  O       48.487    -305.706      98.514
  C       48.230    -308.112      98.403
  O       47.514    -308.283      99.642
  C       47.827    -309.298      97.543
  O       48.765    -309.505      96.507
  C       47.776    -310.428      98.565
  O       49.046    -311.088      98.690
  C       47.406    -309.698      99.876
  N       46.084    -310.054     100.362
  C       45.985    -311.284     101.022
  O       46.977    -312.005     101.141
  N       44.761    -311.674     101.503
  C       43.724    -310.914     101.320
  N       42.538    -311.356     101.816
  C       43.781    -309.622     100.607
  C       44.981    -309.257     100.159
  O       49.727    -303.557      98.906
  O       50.178    -304.824      96.728
  H       49.636    -310.438      99.127
  H       50.684    -303.707      98.996
  H       42.889    -309.030     100.472
  H       45.118    -308.324      99.621
  H       48.131    -309.940     100.665
  H       47.049    -311.195      98.276
  H       46.824    -309.133      97.124
  H       49.308    -308.149      98.611
  H       42.536    -312.247     102.297
  H       48.280    -306.743      96.732
  H       41.668    -310.850     101.723
  H       46.825    -306.603      97.703
  P       48.239    -309.441      94.998
  C       48.895    -306.993      94.593
  O       47.830    -307.907      94.764
  O       46.804    -310.148      95.114
  O       49.090    -310.071      93.947
  H       46.412    -310.260      94.228
  H       48.490    -306.042      94.239
  H       49.612    -307.365      93.857
  H       49.396    -306.825      95.552
  H       46.208    -302.539      97.523
  H       47.379    -302.532      98.820
  H       46.452    -303.975      98.488

 3  4  5  6  7  8  9  10  11  12  13  21  23  27  28  29  30  32 0
 6-311+G(2d,p)
 ****
 34  35 0
 6-311+G(2d,p)
 ****
 1  2  14  15  16  17  18  19  20  22  24  25  26 0
 3-21G
 ****
 31  33  36  37  38  39  40  41  42  43  44  45  46 0
 3-21G
 ****


