%nproc=1
%NoSave
%Mem=1900MB
#P OB98/GEN NMR

erre ene a

0 1
  C      146.663     100.151    -187.104
  O      146.211     100.430    -188.420
  P      146.454     101.908    -188.996
  C      148.989     101.679    -189.451
  O      147.978     102.284    -188.657
  C      149.583     102.683    -190.434
  O      148.543     103.110    -191.358
  C      150.159     103.947    -189.775
  O      151.413     104.272    -190.389
  C      149.165     105.030    -190.154
  O      149.760     106.323    -190.158
  C      148.719     104.531    -191.527
  N      146.516     108.906    -192.752
  C      147.847     108.626    -192.511
  N      148.699     109.674    -192.547
  N      148.302     107.429    -192.255
  C      147.340     106.471    -192.281
  C      145.994     106.625    -192.516
  C      145.497     107.965    -192.739
  O      144.318     108.292    -192.869
  N      145.343     105.418    -192.476
  C      146.289     104.538    -192.214
  N      147.512     105.136    -192.040
  O      145.605     102.823    -187.993
  O      146.034     102.119    -190.408
  H      150.647     106.229    -190.553
  H      144.961     103.354    -188.499
  H      146.219     109.850    -192.926
  H      146.133     103.471    -192.113
  H      149.514     104.688    -192.269
  H      148.339     105.030    -189.434
  H      148.424     110.615    -192.774
  H      150.289     103.867    -188.690
  H      149.684     109.486    -192.395
  H      150.351     102.175    -191.031
  H      148.556     100.844    -190.012
  H      149.773     101.290    -188.792
  P      152.549     104.851    -189.411
  C      153.734     102.584    -188.916
  O      152.934     103.645    -188.431
  O      151.747     105.864    -188.471
  O      153.685     105.506    -190.123
  H      152.344     106.545    -188.113
  H      154.148     102.799    -189.907
  H      153.128     101.678    -188.973
  H      154.558     102.416    -188.219
  H      146.435      99.135    -186.856
  H      146.174     100.805    -186.413
  H      147.721     100.302    -187.051

 3  4  5  6  7  8  9  10  11  12  23  26  30  31  33  0
 6-311+G(2d,p)
 ****
 35  36  37  38 0
 6-311+G(2d,p)
 ****
 1  2  13  14  15  16  17  18  19  20  21  22  24  25  27  28  29 0
 3-21G
 ****
 32  34  39  40  41  42  43  44  45  46  47  48  49 0
 3-21G
 ****


