%nproc=1
%NoSave
%Mem=1900MB
#P OB98/GEN NMR

erre ene a

0 1
  C       46.265    -367.626      10.975
  O       47.578    -368.178      11.008
  P       47.768    -369.571      11.770
  C       49.579    -370.051       9.975
  O       49.231    -370.098      11.355
  C       50.486    -371.228       9.616
  O       49.857    -372.454      10.005
  C       50.777    -371.365       8.126
  O       51.812    -370.487       7.707
  C       51.241    -372.814       8.058
  O       52.621    -372.907       8.432
  C       50.339    -373.499       9.107
  N       47.919    -377.926       8.753
  C       49.059    -377.602       9.452
  N       49.630    -378.591      10.183
  N       49.602    -376.413       9.437
  C       48.918    -375.519       8.696
  C       47.771    -375.715       7.946
  C       47.202    -377.049       7.934
  O       46.231    -377.420       7.292
  N       47.348    -374.571       7.336
  C       48.212    -373.657       7.743
  N       49.200    -374.194       8.544
  O       46.780    -370.562      10.981
  O       47.472    -369.549      13.236
  H       53.139    -372.421       7.759
  H       46.514    -371.296      11.567
  H       47.532    -378.857       8.817
  H       48.165    -372.600       7.482
  H       50.915    -374.200       9.719
  H       51.154    -373.239       7.048
  H       49.179    -379.486      10.336
  H       49.869    -371.241       7.533
  H       50.442    -378.354      10.732
  H       51.419    -371.125      10.188
  H       50.108    -369.114       9.767
  H       48.658    -370.073       9.375
  P       51.738    -369.987       6.173
  C       53.903    -368.605       6.571
  O       53.252    -369.590       5.796
  O       50.972    -368.595       6.269
  O       51.057    -370.946       5.243
  H       50.528    -368.397       5.426
  H       53.628    -368.678       7.628
  H       53.650    -367.612       6.200
  H       54.989    -368.749       6.479
  H       46.281    -366.701      10.438
  H       45.926    -367.452      11.975
  H       45.603    -368.310      10.487

 3  4  5  6  7  8  9  10  11  12  23  26  30  31  33  0
 6-311+G(2d,p)
 ****
 35  36  37  38 0
 6-311+G(2d,p)
 ****
 1  2  13  14  15  16  17  18  19  20  21  22  24  25  27  28  29 0
 3-21G
 ****
 32  34  39  40  41  42  43  44  45  46  47  48  49 0
 3-21G
 ****


