%nproc=1
%NoSave
%Mem=1900MB
#P OB98/GEN NMR

erre ene a

0 1
  C     -140.555    -569.076     123.645
  O     -139.163    -569.432     123.665
  P     -138.259    -568.975     124.913
  C     -135.953    -569.104     123.678
  O     -136.785    -569.582     124.729
  C     -134.842    -570.116     123.389
  O     -134.148    -570.475     124.605
  C     -135.326    -571.437     122.803
  O     -135.651    -571.322     121.428
  C     -134.126    -572.340     123.072
  O     -133.126    -572.181     122.049
  C     -133.618    -571.806     124.423
  N     -133.973    -572.679     125.539
  C     -133.224    -573.851     125.672
  O     -132.356    -574.184     124.871
  N     -133.542    -574.640     126.741
  C     -134.550    -574.416     127.636
  O     -134.799    -575.178     128.567
  C     -135.355    -573.207     127.401
  C     -135.038    -572.408     126.378
  O     -138.843    -569.886     126.100
  O     -138.331    -567.528     125.273
  H     -132.389    -572.777     122.286
  H     -138.715    -569.427     126.953
  H     -132.996    -575.475     126.872
  H     -136.181    -573.005     128.076
  H     -135.619    -571.515     126.193
  H     -132.526    -571.696     124.399
  H     -134.401    -573.400     123.086
  H     -136.185    -571.802     123.381
  H     -134.117    -569.640     122.711
  H     -135.502    -568.153     123.981
  H     -136.567    -568.935     122.788
  P     -136.879    -572.213     120.904
  C     -135.724    -572.617     118.597
  O     -136.827    -572.106     119.307
  O     -138.124    -571.306     121.339
  O     -136.888    -573.595     121.473
  H     -137.921    -570.353     121.297
  H     -135.301    -573.505     119.086
  H     -134.954    -571.847     118.522
  H     -136.050    -572.899     117.586
  H     -141.007    -569.454     122.752
  H     -140.651    -568.011     123.670
  H     -141.043    -569.498     124.498

 3  4  5  6  7  8  9  10  11  12  13  23  28  29  30  31  32 0
 6-311+G(2d,p)
 ****
 33  34 0
 6-311+G(2d,p)
 ****
 1  2  14  15  16  17  18  19  20  21  22  24  25  26 0
 3-21G
 ****
 27  35  36  37  38  39  40  41  42  43  44  45 0
 3-21G
 ****


