%nproc=1
%NoSave
%Mem=1900MB
#P OB98/GEN NMR

erre ene a

0 1
  C      305.070    -163.863     337.542
  O      306.197    -164.664     337.229
  P      306.409    -166.018     338.060
  C      306.520    -166.526     340.640
  O      306.543    -165.570     339.594
  C      307.024    -165.901     341.943
  O      306.305    -164.676     342.209
  C      306.825    -166.764     343.181
  O      307.786    -167.804     343.258
  C      306.926    -165.723     344.289
  O      308.305    -165.421     344.565
  C      306.235    -164.505     343.640
  N      304.855    -164.322     344.085
  C      304.682    -163.959     345.417
  O      305.617    -163.797     346.198
  N      303.385    -163.810     345.830
  C      302.268    -164.045     345.078
  O      301.130    -163.937     345.513
  C      302.517    -164.458     343.689
  C      303.777    -164.571     343.262
  O      307.894    -166.407     337.615
  O      305.372    -167.051     337.776
  H      308.415    -165.623     337.363
  H      308.335    -164.479     344.818
  H      303.234    -163.528     346.788
  H      301.653    -164.656     343.063
  H      303.974    -164.885     342.244
  H      306.795    -163.589     343.863
  H      306.466    -166.057     345.224
  H      305.816    -167.197     343.176
  H      308.085    -165.650     341.815
  H      307.160    -167.370     340.366
  H      305.493    -166.893     340.763
  P      307.362    -169.117     344.093
  C      307.044    -169.616     346.635
  O      307.447    -168.706     345.635
  O      308.638    -170.055     343.862
  O      306.068    -169.712     343.654
  H      309.479    -169.573     343.927
  H      307.492    -169.316     347.587
  H      307.357    -170.633     346.402
  H      305.953    -169.586     346.737
  H      305.060    -162.999     336.911
  H      305.124    -163.556     338.566
  H      304.176    -164.429     337.386

 3  4  5  6  7  8  9  10  11  12  13  24  28  29  30  31  32 0
 6-311+G(2d,p)
 ****
 33  34 0
 6-311+G(2d,p)
 ****
 1  2  14  15  16  17  18  19  20  21  22  23  25  26  27 0
 3-21G
 ****
 35  36  37  38  39  40  41  42  43  44  45 0
 3-21G
 ****


