%nproc=1
%NoSave
%Mem=1900MB
#P OB98/GEN NMR

erre ene a

0 1
  C      -77.067     276.840     -66.763
  O      -75.729     276.943     -66.314
  H      -77.312     275.784     -66.895
  H      -77.182     277.351     -67.723
  H      -77.749     277.273     -66.028
  P      -75.176     278.423     -66.038
  C      -73.075     278.301     -67.563
  O      -74.366     278.858     -67.353
  C      -72.384     279.029     -68.714
  O      -73.158     278.871     -69.927
  C      -72.260     280.533     -68.505
  O      -71.194     280.871     -67.634
  C      -72.048     281.011     -69.934
  O      -70.676     280.892     -70.328
  C      -72.920     280.043     -70.741
  N      -75.309     282.650     -74.421
  C      -74.071     282.118     -74.353
  N      -73.513     281.424     -73.339
  C      -74.387     281.277     -72.329
  C      -75.682     281.761     -72.259
  C      -76.145     282.479     -73.372
  N      -77.399     283.045     -73.435
  N      -76.254     281.443     -71.041
  C      -75.324     280.771     -70.392
  N      -74.181     280.642     -71.132
  O      -74.030     278.183     -64.946
  O      -76.198     279.403     -65.567
  H      -70.411     279.975     -70.123
  H      -74.376     278.397     -64.059
  H      -73.439     282.276     -75.223
  H      -75.428     280.368     -69.393
  H      -72.423     279.704     -71.657
  H      -72.335     282.054     -70.041
  H      -73.206     280.942     -68.133
  H      -71.398     278.574     -68.874
  H      -73.172     277.240     -67.816
  H      -72.492     278.398     -66.641
  H      -77.639     283.604     -74.235
  H      -77.987     283.020     -72.611
  P      -71.119     282.382     -67.104
  C      -68.709     282.861     -67.977
  O      -70.093     283.168     -68.052
  O      -70.334     282.260     -65.714
  O      -72.444     283.047     -66.938
  H      -70.687     282.913     -65.076
  H      -68.170     283.472     -68.671
  H      -68.559     281.829     -68.218
  H      -68.355     283.050     -66.985

 6  7  8  9  10  11  12  13  14  15  25  28  32  33  34  35 0
 6-311+G(2d,p)
 ****
 36  37  40 0
 6-311+G(2d,p)
 ****
 1  2  3  4  5  16  17  18  19  20  21  22  23  24 0
 3-21G
 ****
 26  27  29  30  31  38  39 41  42  43  44  45  46  47  48 0
 3-21G
 ****


