%nproc=1
%NoSave
%Mem=1900MB
#P OB98/GEN NMR

erre ene a

0 1
  C      -40.258     331.584     258.733
  O      -39.385     331.532     259.840
  H      -41.188     331.075     258.996
  H      -39.811     331.072     257.878
  H      -40.491     332.619     258.467
  P      -38.016     332.364     259.786
  C      -37.190     334.541     260.899
  O      -38.083     333.442     260.970
  C      -36.676     334.916     262.295
  O      -37.812     335.334     263.112
  C      -35.983     333.758     263.045
  O      -34.998     334.347     263.906
  C      -37.148     333.197     263.839
  O      -36.741     332.284     264.828
  C      -37.798     334.511     264.298
  N      -39.139     334.385     264.853
  C      -39.273     334.425     266.238
  O      -38.337     334.560     267.026
  N      -40.551     334.292     266.715
  C      -41.679     334.146     265.965
  O      -42.800     334.065     266.451
  C      -41.475     334.105     264.509
  C      -40.235     334.230     264.028
  O      -37.645     332.916     258.449
  O      -36.920     331.321     260.318
  H      -36.422     330.958     259.562
  H      -37.517     331.760     265.119
  H      -40.666     334.323     267.718
  H      -42.346     333.980     263.884
  H      -40.054     334.212     262.957
  H      -37.153     335.010     265.027
  H      -37.818     332.639     263.178
  H      -35.502     333.041     262.376
  H      -36.011     335.784     262.206
  H      -37.728     335.392     260.465
  H      -36.350     334.283     260.246
  P      -33.432     334.379     263.564
  C      -32.084     335.409     261.603
  O      -33.177     335.564     262.507
  O      -32.877     333.061     263.131
  O      -32.716     334.896     264.898
  H      -31.800     334.564     264.930
  H      -32.029     336.263     260.960
  H      -32.231     334.528     261.014
  H      -31.173     335.320     262.157

 6  7  8  9  10  11  12  13  14  15  16  27  31  32  33  34  35 0
 6-311+G(2d,p)
 ****
 36  37 0
 6-311+G(2d,p)
 ****
 1  2  3  4  5  17  18  19  20  21  22  23  24  25 0
 3-21G
 ****
 26  28  29  30  38  39  40  41  42  43  44  45 0
 3-21G
 ****


