%nproc=1
%NoSave
%Mem=1900MB
#P OB98/GEN NMR

erre ene a

0 1
  C      213.071    -995.276     819.360
  O      213.513    -994.087     819.989
  H      213.424    -995.276     818.321
  H      211.985    -995.318     819.360
  H      213.482    -996.157     819.859
  P      213.296    -993.924     821.569
  C      215.766    -994.489     822.040
  O      214.725    -993.538     822.194
  C      217.121    -993.773     821.843
  O      217.141    -993.188     820.503
  C      217.372    -992.633     822.841
  O      218.804    -992.545     823.019
  C      216.866    -991.435     822.041
  O      217.222    -990.196     822.622
  C      217.427    -991.775     820.666
  N      216.888    -991.009     819.544
  C      217.788    -990.426     818.664
  O      219.029    -990.518     818.758
  N      217.253    -989.703     817.649
  C      215.898    -989.510     817.417
  O      215.476    -988.873     816.455
  C      214.998    -990.150     818.382
  C      215.530    -990.855     819.388
  O      212.590    -995.043     822.243
  O      212.483    -992.548     821.699
  H      211.532    -992.737     821.856
  H      216.883    -989.469     822.052
  H      217.881    -989.283     816.987
  H      213.953    -990.002     818.238
  H      214.888    -991.341     820.118
  H      218.518    -991.682     820.669
  H      215.773    -991.442     822.044
  H      216.892    -992.776     823.802
  H      217.912    -994.517     821.872
  H      215.547    -995.112     821.160
  H      215.812    -995.123     822.921
  P      219.488    -992.067     824.392
  C      219.796    -994.329     825.638
  O      220.434    -993.250     824.921
  O      218.529    -991.569     825.422
  O      220.521    -990.916     823.966
  H      220.670    -990.312     824.729
  H      220.533    -995.046     825.933
  H      219.074    -994.800     825.005
  H      219.308    -993.940     826.508

 6  7  8  9  10  11  12  13  14  15  16  27  31  32  33  34  35 0
 6-311+G(2d,p)
 ****
 36  37 0
 6-311+G(2d,p)
 ****
 1  2  3  4  5  17  18  19  20  21  22  23  24  25 0
 3-21G
 ****
 26  28  29  30  38  39  40  41  42  43  44  45 0
 3-21G
 ****


