%nproc=1
%NoSave
%Mem=1900MB
#P OB98/GEN NMR

erre ene a

0 1
  C        1.448     263.326     -41.937
  O        0.152     262.924     -41.486
  P       -0.983     262.488     -42.536
  C       -2.487     263.592     -44.291
  O       -1.667     263.808     -43.148
  C       -2.521     264.784     -45.256
  O       -3.182     265.924     -44.649
  C       -1.151     265.264     -45.738
  O       -1.345     265.734     -47.077
  C       -0.860     266.420     -44.795
  O        0.145     267.294     -45.291
  C       -2.259     267.030     -44.648
  N       -2.387     267.841     -43.439
  C       -2.136     269.210     -43.568
  O       -1.768     269.676     -44.647
  N       -2.259     270.013     -42.457
  C       -2.513     269.477     -41.304
  N       -2.596     270.318     -40.237
  C       -2.701     268.024     -41.107
  C       -2.634     267.278     -42.209
  O       -1.949     261.468     -42.026
  O       -0.149     261.900     -43.776
  H        0.256     268.030     -44.654
  H       -0.679     261.211     -44.221
  H       -2.885     267.621     -40.118
  H       -2.765     266.201     -42.172
  H       -2.499     267.663     -45.514
  H       -0.512     266.028     -43.830
  H       -0.382     264.487     -45.704
  H       -3.134     264.490     -46.118
  H       -2.438     271.304     -40.411
  H       -3.508     263.373     -43.950
  H       -2.676     269.996     -39.282
  H       -2.129     262.698     -44.820
  P       -0.284     265.448     -48.240
  C        2.190     265.979     -48.642
  O        1.036     266.282     -47.874
  O       -0.797     265.673     -49.626
  O        0.169     263.925     -48.024
  H        0.586     263.594     -48.842
  H        2.952     266.738     -48.455
  H        1.952     265.970     -49.715
  H        2.583     265.001     -48.347
  H        2.057     263.576     -41.094
  H        1.355     264.180     -42.575
  H        1.902     262.523     -42.479

 3  4  5  6  7  8  9  10  11  12  13  23  27  28  29  30  32 0
 6-311+G(2d,p)
 ****
 34  35 0
 6-311+G(2d,p)
 ****
 1  2  14  15  16  17  18  19  20  21  22  24  25  26 0
 3-21G
 ****
 31  33  36  37  38  39  40  41  42  43  44  45  46 0
 3-21G
 ****


