%nproc=1
%NoSave
%Mem=1900MB
#P OB98/GEN NMR

erre ene a

0 1
  C      754.243     603.754    -523.432
  O      754.645     603.737    -522.052
  P      754.237     605.000    -521.168
  C      753.704     603.755    -518.942
  O      753.194     604.511    -520.033
  C      752.690     603.771    -517.793
  O      752.285     605.115    -517.454
  C      751.393     603.035    -518.113
  O      751.576     601.631    -518.064
  C      750.477     603.587    -517.022
  O      750.722     602.921    -515.778
  C      750.939     605.053    -516.927
  N      746.771     608.032    -516.680
  C      747.377     607.232    -515.773
  N      748.478     606.470    -515.911
  C      748.989     606.602    -517.156
  C      748.491     607.381    -518.186
  C      747.321     608.121    -517.914
  N      746.716     608.924    -518.857
  N      749.284     607.248    -519.313
  C      750.221     606.389    -518.973
  N      750.091     605.970    -517.674
  O      753.322     605.868    -522.153
  O      755.393     605.787    -520.663
  H      750.388     602.000    -515.876
  H      753.805     606.669    -522.438
  H      746.893     607.200    -514.795
  H      750.996     606.031    -519.632
  H      750.967     605.418    -515.883
  H      749.402     603.472    -517.269
  H      751.028     603.331    -519.108
  H      753.165     603.323    -516.907
  H      754.653     604.169    -518.599
  H      745.843     609.370    -518.605
  H      747.072     608.935    -519.801
  H      753.906     602.740    -519.271
  P      751.651     600.850    -519.471
  C      753.761     599.683    -518.602
  O      753.200     600.466    -519.627
  O      751.455     602.039    -520.511
  O      750.686     599.709    -519.601
  H      752.022     602.806    -520.296
  H      754.811     599.476    -518.847
  H      753.220     598.733    -518.517
  H      753.727     600.224    -517.643
  H      754.575     602.857    -523.911
  H      754.678     604.601    -523.920
  H      753.177     603.817    -523.492

 3  4  5  6  7  8  9  10  11  12  22  25  29  30  31  32 0
 6-311+G(2d,p)
 ****
 33  36  37 0
 6-311+G(2d,p)
 ****
 1  2  13  14  15  16  17  18  19  20  21  23  24  26 0
 3-21G
 ****
 27  28  34  35  38  39  40  41  42  43  44  45  46  47  48 0
 3-21G
 ****


