%nproc=1
%NoSave
%Mem=1900MB
#P OB98/GEN NMR

erre ene a

0 1
  C      -77.423     -36.022    -326.922
  O      -76.241     -35.249    -326.951
  H      -78.093     -35.614    -326.161
  H      -77.183     -37.056    -326.660
  H      -77.929     -35.991    -327.891
  P      -75.208     -35.553    -328.140
  C      -73.944     -37.041    -326.427
  O      -74.450     -36.914    -327.748
  C      -74.290     -38.414    -325.859
  O      -75.712     -38.513    -325.613
  C      -73.936     -39.579    -326.776
  O      -72.566     -39.943    -326.661
  C      -74.840     -40.665    -326.210
  O      -74.275     -41.184    -324.988
  C      -76.123     -39.876    -325.909
  N      -81.041     -39.839    -327.145
  C      -80.438     -39.871    -325.903
  N      -81.265     -39.909    -324.834
  N      -79.142     -39.874    -325.719
  C      -78.440     -39.845    -326.878
  C      -78.922     -39.807    -328.167
  C      -80.354     -39.800    -328.354
  O      -80.939     -39.748    -329.433
  N      -77.902     -39.776    -329.083
  C      -76.807     -39.814    -328.350
  N      -77.079     -39.862    -327.005
  O      -74.077     -34.434    -327.946
  O      -75.784     -35.508    -329.515
  H      -73.473     -41.676    -325.237
  H      -73.756     -34.155    -328.825
  H      -82.041     -39.852    -327.231
  H      -75.799     -39.804    -328.742
  H      -76.650     -40.261    -325.030
  H      -74.960     -41.507    -326.891
  H      -82.267     -39.962    -324.906
  H      -74.216     -39.375    -327.815
  H      -80.845     -39.900    -323.911
  H      -73.784     -38.516    -324.889
  H      -74.387     -36.264    -325.796
  H      -72.857     -36.905    -326.450
  P      -71.604     -39.623    -327.909
  C      -71.285     -42.096    -328.633
  O      -71.833     -40.823    -328.949
  O      -70.143     -39.918    -327.322
  O      -71.723     -38.243    -328.456
  H      -69.472     -39.426    -327.834
  H      -71.518     -42.789    -329.415
  H      -71.702     -42.445    -327.711
  H      -70.223     -42.013    -328.535

 6  7  8  9  10  11  12  13  14  15  26  29  33  34 0
 6-311+G(2d,p)
 ****
 36  38  39  40  41 0
 6-311+G(2d,p)
 ****
 1  2  3  4  5  16  17  18  19  20  21  22  23  24  25 0
 3-21G
 ****
 27  28  30  31  32  35  37  42  43  44  45  46  47 0
 3-21G
 ****
 48  49 0
 3-21G
 ****


