%nproc=1
%NoSave
%Mem=1900MB
#P OB98/GEN NMR

erre ene a

0 1
  C       28.537     -35.889     -21.122
  O       29.949     -35.852     -21.143
  H       28.216     -36.899     -20.858
  H       28.140     -35.644     -22.110
  H       28.139     -35.192     -20.380
  P       30.683     -34.437     -21.304
  C       31.313     -35.031     -23.733
  O       30.685     -34.092     -22.869
  C       32.160     -34.299     -24.769
  O       31.327     -33.442     -25.578
  C       33.228     -33.390     -24.169
  O       34.322     -34.146     -23.687
  C       33.539     -32.496     -25.359
  O       34.427     -33.155     -26.275
  C       32.135     -32.315     -25.984
  N       31.498     -31.053     -25.612
  C       32.028     -29.900     -26.181
  O       33.005     -29.908     -26.929
  N       31.406     -28.727     -25.846
  C       30.384     -28.592     -24.952
  O       29.895     -27.509     -24.645
  C       29.887     -29.840     -24.355
  C       30.456     -30.994     -24.708
  O       32.010     -34.313     -20.633
  O       29.623     -33.394     -20.709
  H       34.696     -32.485     -26.933
  H       29.877     -33.150     -19.800
  H       31.784     -27.880     -26.238
  H       29.080     -29.770     -23.638
  H       30.107     -31.924     -24.274
  H       32.200     -32.354     -27.079
  H       34.022     -31.563     -25.070
  H       32.797     -32.774     -23.371
  H       32.615     -35.048     -25.430
  H       30.538     -35.615     -24.241
  H       31.931     -35.706     -23.133
  P       34.994     -33.805     -22.277
  C       36.942     -32.545     -23.361
  O       35.846     -32.455     -22.460
  O       35.740     -34.928     -21.638
  O       33.765     -33.336     -21.366
  H       33.545     -34.036     -20.721
  H       37.441     -31.600     -23.412
  H       36.583     -32.812     -24.333
  H       37.627     -33.291     -23.016

 6  7  8  9  10  11  12  13  14  15  16  26  31  32  33  34  35 0
 6-311+G(2d,p)
 ****
 36  37 0
 6-311+G(2d,p)
 ****
 1  2  3  4  5  17  18  19  20  21  22  23  24  25 0
 3-21G
 ****
 27  28  29  30  38  39  40  41  42  43  44  45 0
 3-21G
 ****


