%nproc=1
%NoSave
%Mem=1900MB
#P OB98/GEN NMR

erre ene a

0 1
  C      253.266    -185.646    -162.649
  O      252.164    -186.472    -162.323
  H      254.161    -186.044    -162.162
  H      253.090    -184.627    -162.288
  H      253.426    -185.636    -163.731
  P      250.743    -186.059    -162.940
  C      251.259    -187.414    -165.095
  O      250.364    -187.204    -164.011
  C      251.048    -188.807    -165.694
  O      251.336    -189.808    -164.675
  C      249.618    -189.061    -166.200
  O      249.685    -189.844    -167.400
  C      249.003    -189.899    -165.092
  O      247.899    -190.673    -165.555
  C      250.212    -190.716    -164.652
  N      247.942    -194.452    -162.147
  C      247.971    -194.163    -163.497
  N      247.290    -195.003    -164.315
  N      248.609    -193.147    -164.009
  C      249.278    -192.409    -163.081
  C      249.317    -192.578    -161.717
  C      248.585    -193.696    -161.162
  O      248.507    -193.990    -159.971
  N      250.075    -191.594    -161.118
  C      250.484    -190.837    -162.122
  N      250.033    -191.295    -163.332
  O      251.087    -184.795    -163.864
  O      249.674    -185.754    -161.943
  H      247.534    -191.162    -164.789
  H      250.332    -184.182    -163.913
  H      247.425    -195.239    -161.802
  H      251.103    -189.955    -162.025
  H      250.425    -191.547    -165.337
  H      248.654    -189.249    -164.279
  H      246.800    -195.824    -163.996
  H      249.051    -188.145    -166.395
  H      247.311    -194.814    -165.314
  H      251.781    -188.957    -166.493
  H      252.288    -187.328    -164.731
  H      251.083    -186.650    -165.858
  P      249.678    -189.064    -168.802
  C      252.117    -189.512    -169.586
  O      250.731    -189.772    -169.789
  O      250.395    -187.671    -168.434
  O      248.312    -188.844    -169.365
  H      249.726    -186.952    -168.438
  H      252.691    -190.048    -170.313
  H      252.399    -189.830    -168.604
  H      252.302    -188.463    -169.688

 6  7  8  9  10  11  12  13  14  15  26  29  33  34 0
 6-311+G(2d,p)
 ****
 36  38  39  40  41 0
 6-311+G(2d,p)
 ****
 1  2  3  4  5  16  17  18  19  20  21  22  23  24  25 0
 3-21G
 ****
 27  28  30  31  32  35  37  42  43  44  45  46  47 0
 3-21G
 ****
 48  49 0
 3-21G
 ****


