%nproc=1
%NoSave
%Mem=1900MB
#P OB98/GEN NMR

erre ene a

0 1
  C      483.406    -300.463    -345.749
  O      483.193    -301.095    -344.491
  P      484.352    -301.019    -343.390
  C      483.223    -299.420    -341.609
  O      484.230    -299.657    -342.567
  C      483.285    -297.952    -341.160
  O      482.892    -297.079    -342.242
  C      482.367    -297.640    -339.979
  O      482.992    -297.910    -338.737
  C      482.062    -296.173    -340.200
  O      483.169    -295.361    -339.769
  C      481.916    -296.120    -341.740
  N      480.596    -296.439    -342.323
  C      479.582    -295.484    -342.301
  O      479.698    -294.363    -341.810
  N      478.397    -295.852    -342.881
  C      478.174    -296.978    -343.618
  O      477.109    -297.229    -344.164
  C      479.323    -297.883    -343.738
  C      480.452    -297.585    -343.092
  O      485.682    -300.828    -344.251
  O      484.432    -302.215    -342.493
  H      482.886    -294.433    -339.829
  H      486.271    -301.599    -344.147
  H      477.629    -295.204    -342.811
  H      479.206    -298.766    -344.354
  H      481.308    -298.250    -343.175
  H      482.201    -295.131    -342.120
  H      481.205    -295.857    -339.608
  H      481.432    -298.198    -340.072
  H      484.323    -297.714    -340.898
  H      483.342    -300.079    -340.748
  H      482.241    -299.640    -342.045
  P      482.762    -299.321    -338.018
  C      485.207    -299.975    -338.433
  O      483.850    -300.313    -338.653
  O      481.359    -299.827    -338.002
  O      483.332    -299.085    -336.538
  H      482.602    -298.851    -335.918
  H      485.836    -300.803    -338.772
  H      485.390    -299.802    -337.368
  H      485.462    -299.078    -339.004
  H      482.545    -300.603    -346.369
  H      484.262    -300.894    -346.224
  H      483.571    -299.416    -345.599

 3  4  5  6  7  8  9  10  11  12  13  23  28  29  30  31  32 0
 6-311+G(2d,p)
 ****
 33  34 0
 6-311+G(2d,p)
 ****
 1  2  14  15  16  17  18  19  20  21  22  24  25  26  27 0
 3-21G
 ****
 35  36  37  38  39  40  41  42  43  44  45 0
 3-21G
 ****


