%nproc=1
%NoSave
%Mem=1900MB
#P OB98/GEN NMR

erre ene a

0 1
  C     1110.183    1266.256    -300.513
  O     1110.844    1265.067    -300.931
  P     1112.057    1264.402    -300.116
  C     1113.452    1263.953    -302.227
  O     1112.846    1263.395    -301.078
  C     1113.967    1262.866    -303.219
  O     1112.859    1262.094    -303.674
  C     1114.664    1263.419    -304.459
  O     1115.953    1263.857    -304.153
  C     1114.579    1262.181    -305.368
  O     1115.641    1261.248    -305.078
  C     1113.192    1261.610    -305.001
  N     1112.183    1261.918    -305.973
  C     1111.987    1260.973    -307.023
  O     1112.729    1259.980    -307.086
  N     1111.017    1261.214    -307.949
  C     1110.333    1262.322    -307.889
  N     1109.339    1262.483    -308.835
  C     1110.540    1263.349    -306.874
  C     1111.463    1263.086    -305.962
  O     1111.667    1263.815    -298.805
  O     1113.099    1265.600    -299.899
  H     1115.445    1260.455    -305.598
  H     1113.576    1265.450    -299.061
  H     1109.969    1264.267    -306.887
  H     1111.703    1263.791    -305.178
  H     1113.284    1260.505    -304.893
  H     1114.669    1262.460    -306.438
  H     1114.076    1264.222    -304.893
  H     1114.632    1262.230    -302.653
  H     1109.216    1261.755    -309.520
  H     1114.315    1264.569    -301.910
  H     1108.772    1263.315    -308.893
  H     1112.745    1264.625    -302.738
  P     1116.339    1265.402    -304.323
  C     1117.936    1264.918    -306.252
  O     1117.780    1265.484    -304.972
  O     1116.110    1266.248    -303.108
  O     1115.375    1265.917    -305.524
  H     1115.160    1266.838    -305.376
  H     1118.801    1265.374    -306.744
  H     1117.065    1265.082    -306.872
  H     1118.126    1263.839    -306.131
  H     1109.413    1266.501    -301.214
  H     1110.889    1267.058    -300.463
  H     1109.750    1266.102    -299.547

 3  4  5  6  7  8  9  10  11  12  13  23  27  28  29  30  32 0
 6-311+G(2d,p)
 ****
 34  35 0
 6-311+G(2d,p)
 ****
 1  2  14  15  16  17  18  19  20  21  22  24  25  26 0
 3-21G
 ****
 31  33  36  37  38  39  40  41  42  43  44  45  46 0
 3-21G
 ****


