%nproc=1
%NoSave
%Mem=1900MB
#P OB98/GEN NMR

erre ene a

0 1
  C     -318.295     827.005     568.466
  O     -319.168     825.986     568.913
  H     -317.904     827.534     569.339
  H     -318.823     827.721     567.824
  H     -317.456     826.567     567.920
  P     -320.082     825.237     567.818
  C     -319.568     822.771     568.399
  O     -320.509     823.844     568.496
  C     -320.213     821.427     568.722
  O     -320.731     821.418     570.074
  C     -321.411     821.094     567.835
  O     -321.107     820.867     566.477
  C     -322.085     819.982     568.650
  O     -321.486     818.708     568.428
  C     -321.807     820.456     570.096
  N     -322.993     821.010     570.742
  C     -324.007     820.099     571.044
  O     -323.942     818.908     570.777
  N     -325.127     820.628     571.636
  C     -325.342     821.965     571.906
  O     -326.378     822.360     572.418
  C     -324.260     822.868     571.520
  C     -323.146     822.373     570.967
  O     -319.473     825.095     566.453
  O     -321.449     826.077     567.825
  H     -322.100     818.040     568.804
  H     -321.995     825.874     567.029
  H     -325.855     819.988     571.882
  H     -324.401     823.931     571.718
  H     -322.335     823.020     570.679
  H     -321.461     819.609     570.720
  H     -323.139     819.901     568.410
  H     -322.100     821.950     567.856
  H     -319.438     820.647     568.646
  H     -318.765     822.974     569.121
  H     -319.125     822.759     567.392
  P     -321.844     821.611     565.271
  C     -319.879     821.569     563.543
  O     -321.178     821.126     563.894
  O     -322.090     823.075     565.449
  O     -323.276     820.864     565.251
  H     -323.944     821.534     564.977
  H     -319.601     821.147     562.600
  H     -319.181     821.258     564.292
  H     -319.873     822.637     563.472

 6  7  8  9  10  11  12  13  14  15  16  26  31  32  33  34  35 0
 6-311+G(2d,p)
 ****
 36  37 0
 6-311+G(2d,p)
 ****
 1  2  3  4  5  17  18  19  20  21  22  23  24  25 0
 3-21G
 ****
 27  28  29  30  38  39  40  41  42  43  44  45 0
 3-21G
 ****


