%nproc=1
%NoSave
%Mem=1900MB
#P OB98/GEN NMR

erre ene a

0 1
  C      608.046    -361.278    -370.810
  O      608.515    -360.307    -369.894
  H      607.837    -362.204    -370.264
  H      608.815    -361.483    -371.562
  H      607.129    -360.938    -371.297
  P      608.715    -358.817    -370.468
  C      611.327    -358.947    -370.733
  O      610.054    -358.867    -371.351
  C      612.405    -358.345    -371.637
  O      612.497    -359.150    -372.845
  C      612.125    -356.897    -372.056
  O      613.369    -356.199    -372.132
  C      611.540    -357.045    -373.453
  O      611.691    -355.851    -374.219
  C      612.314    -358.263    -373.974
  N      611.621    -358.935    -375.074
  C      611.815    -358.408    -376.350
  O      612.525    -357.406    -376.516
  N      611.163    -358.979    -377.422
  C      610.340    -359.964    -377.208
  N      609.710    -360.476    -378.308
  C      610.077    -360.527    -375.877
  C      610.752    -359.977    -374.867
  O      609.157    -358.024    -369.148
  O      607.518    -358.257    -371.155
  H      611.427    -355.088    -373.661
  H      609.820    -358.492    -368.615
  H      609.373    -361.340    -375.751
  H      610.619    -360.333    -373.842
  H      613.309    -357.965    -374.331
  H      610.471    -357.272    -373.385
  H      611.457    -356.381    -371.363
  H      613.377    -358.423    -371.127
  H      609.906    -360.036    -379.199
  H      611.578    -359.990    -370.508
  H      609.012    -361.204    -378.261
  H      611.275    -358.403    -369.789
  P      613.681    -355.017    -371.099
  C      612.885    -353.159    -372.724
  O      612.747    -353.752    -371.435
  O      615.123    -354.701    -370.887
  O      613.027    -355.574    -369.734
  H      613.635    -355.350    -369.006
  H      612.209    -352.334    -372.811
  H      612.660    -353.886    -373.477
  H      613.889    -352.812    -372.851

 6  7  8  9  10  11  12  13  14  15  16  26  30  31  32  33  35 0
 6-311+G(2d,p)
 ****
 37  38 0
 6-311+G(2d,p)
 ****
 1  2  3  4  5  17  18  19  20  21  22  23  24  25 0
 3-21G
 ****
 27  28  29  34  36  39  40  41  42  43  44  45  46 0
 3-21G
 ****


