%nproc=1
%NoSave
%Mem=1900MB
#P OB98/GEN NMR

erre ene a

0 1
  C      819.996    -217.228     649.787
  O      819.322    -218.398     649.372
  H      819.867    -217.113     650.867
  H      819.583    -216.346     649.289
  H      821.066    -217.312     649.565
  P      819.359    -218.730     647.799
  C      821.481    -220.188     648.021
  O      820.919    -218.993     647.491
  C      822.307    -220.916     646.962
  O      823.496    -220.132     646.681
  C      822.755    -222.319     647.391
  O      822.700    -223.199     646.269
  C      824.215    -222.102     647.799
  O      824.982    -223.297     647.690
  C      824.646    -220.984     646.853
  N      829.662    -220.142     646.476
  C      828.798    -220.852     645.715
  N      827.473    -221.013     645.885
  C      827.040    -220.296     646.928
  C      827.791    -219.526     647.802
  C      829.179    -219.465     647.545
  N      830.061    -218.760     648.336
  N      826.983    -218.986     648.784
  C      825.763    -219.406     648.509
  N      825.746    -220.218     647.403
  O      818.691    -217.734     646.913
  O      818.752    -220.209     647.762
  H      825.823    -223.172     648.177
  H      819.124    -220.766     648.474
  H      829.254    -221.373     644.862
  H      824.871    -219.174     649.080
  H      824.957    -221.355     645.871
  H      824.260    -221.773     648.837
  H      822.165    -222.720     648.207
  H      821.721    -220.960     646.021
  H      820.684    -220.849     648.382
  H      831.032    -218.746     648.068
  H      829.704    -218.231     649.121
  H      822.116    -219.913     648.872
  P      821.319    -223.952     645.961
  C      820.377    -222.116     644.421
  O      820.201    -222.846     645.631
  O      820.912    -225.004     646.943
  O      821.601    -224.596     644.518
  H      821.161    -225.478     644.481
  H      819.578    -221.414     644.309
  H      820.376    -222.793     643.593
  H      821.310    -221.593     644.453

 6  7  8  9  10  11  12  13  14  15  25  28  32  33  34  35 0
 6-311+G(2d,p)
 ****
 36  39  40 0
 6-311+G(2d,p)
 ****
 1  2  3  4  5  16  17  18  19  20  21  22  23  24 0
 3-21G
 ****
 26  27  29  30  31  37  38  41  42  43  44  45  46  47 0
 3-21G
 ****
 48 0
 3-21G
 ****


