%nproc=1
%NoSave
%Mem=1900MB
#P OB98/GEN NMR

erre ene a

0 1
  C      148.129    -346.224     430.181
  O      149.506    -345.907     430.261
  P      150.041    -344.910     431.398
  C      150.931    -342.456     431.411
  O      150.288    -343.488     430.688
  C      151.578    -341.439     430.463
  O      152.749    -342.058     429.890
  C      150.704    -341.012     429.291
  O      151.230    -339.793     428.751
  C      150.933    -342.142     428.307
  O      150.603    -341.773     426.966
  C      152.422    -342.496     428.546
  N      152.665    -343.945     428.407
  C      153.570    -344.345     427.425
  O      154.208    -343.542     426.743
  N      153.654    -345.681     427.195
  C      152.885    -346.639     427.811
  O      152.745    -347.783     427.390
  C      152.127    -346.185     428.990
  C      152.030    -344.871     429.220
  O      151.519    -345.456     431.682
  O      149.213    -344.867     432.632
  H      150.907    -342.504     426.385
  H      151.506    -346.045     432.464
  H      154.197    -345.966     426.390
  H      151.635    -346.931     429.600
  H      151.447    -344.509     430.050
  H      153.081    -341.973     427.829
  H      150.301    -342.991     428.583
  H      149.641    -340.890     429.537
  H      151.905    -340.567     431.050
  H      151.673    -342.899     432.078
  H      150.206    -341.950     432.050
  P      150.325    -338.993     427.699
  C      150.077    -338.965     425.135
  O      150.717    -339.560     426.245
  O      150.338    -337.506     427.824
  O      148.861    -339.595     427.930
  H      148.188    -338.990     427.569
  H      150.740    -339.027     424.270
  H      149.845    -337.906     425.327
  H      149.150    -339.500     424.917
  H      147.965    -346.898     429.366
  H      147.565    -345.328     430.022
  H      147.816    -346.685     431.094

 3  4  5  6  7  8  9  10  11  12  13  23  28  29  30  31  32 0
 6-311+G(2d,p)
 ****
 33  34 0
 6-311+G(2d,p)
 ****
 1  2  14  15  16  17  18  19  20  21  22  24  25  26  27 0
 3-21G
 ****
 35  36  37  38  39  40  41  42  43  44  45 0
 3-21G
 ****


