%nproc=1
%NoSave
%Mem=1900MB
#P OB98/GEN NMR

erre ene a

0 1
  C     -477.361    -714.188    -210.730
  O     -476.717    -713.249    -209.893
  H     -478.159    -713.685    -211.270
  H     -477.799    -714.987    -210.129
  H     -476.659    -714.606    -211.453
  P     -475.492    -713.747    -208.983
  C     -473.922    -712.025    -210.116
  O     -474.187    -713.393    -209.847
  C     -473.706    -711.806    -211.606
  O     -474.899    -712.094    -212.361
  C     -473.345    -710.380    -212.010
  O     -472.010    -710.007    -211.667
  C     -473.558    -710.456    -213.502
  O     -472.465    -711.161    -214.112
  C     -474.868    -711.289    -213.567
  N     -476.060    -710.444    -213.656
  C     -476.267    -709.786    -214.885
  O     -475.463    -709.908    -215.797
  N     -477.366    -708.967    -215.014
  C     -478.177    -708.790    -213.999
  N     -479.246    -707.981    -214.182
  C     -477.979    -709.463    -212.691
  C     -476.916    -710.256    -212.598
  O     -475.571    -715.156    -208.487
  O     -475.404    -712.664    -207.805
  H     -471.678    -710.593    -214.035
  H     -474.663    -712.929    -207.198
  H     -478.668    -709.268    -211.878
  H     -476.712    -710.777    -211.667
  H     -474.848    -711.979    -214.423
  H     -473.629    -709.481    -213.978
  H     -474.065    -709.661    -211.579
  H     -472.934    -712.519    -211.925
  H     -479.336    -707.528    -215.096
  H     -473.028    -711.731    -209.541
  H     -479.876    -707.723    -213.434
  H     -474.763    -711.404    -209.786
  P     -471.827    -708.710    -210.726
  C     -470.134    -709.726    -209.018
  O     -471.454    -709.266    -209.266
  O     -473.316    -708.170    -210.554
  O     -470.886    -707.678    -211.250
  H     -473.483    -707.428    -211.186
  H     -470.057    -710.059    -208.004
  H     -469.441    -708.928    -209.185
  H     -469.909    -710.538    -209.678

 6  7  8  9  10  11  12  13  14  15  16  26  30  31  32  33  35 0
 6-311+G(2d,p)
 ****
 37  38 0
 6-311+G(2d,p)
 ****
 1  2  3  4  5  17  18  19  20  21  22  23  24  25 0
 3-21G
 ****
 27  28  29  34  36  39  40  41  42  43  44  45  46 0
 3-21G
 ****


