%nproc=1
%NoSave
%Mem=1900MB
#P OB98/GEN NMR

erre ene a

0 1
  C     -661.633    -514.736    -182.529
  O     -662.548    -515.172    -183.510
  P     -662.925    -516.719    -183.648
  C     -665.265    -516.390    -182.601
  O     -663.991    -517.001    -182.467
  C     -666.324    -517.442    -183.005
  O     -666.278    -518.565    -182.108
  C     -667.742    -516.916    -182.941
  O     -668.038    -516.096    -184.069
  C     -668.539    -518.229    -182.908
  O     -668.696    -518.774    -184.217
  C     -667.610    -519.125    -182.048
  N     -668.070    -519.252    -180.671
  C     -668.754    -520.439    -180.366
  O     -668.959    -521.270    -181.238
  N     -669.239    -520.617    -179.088
  C     -669.048    -519.678    -178.201
  N     -669.558    -519.914    -176.958
  C     -668.367    -518.398    -178.492
  C     -667.907    -518.264    -179.733
  O     -661.764    -517.647    -183.691
  O     -663.842    -516.764    -184.954
  H     -669.177    -518.094    -184.732
  H     -663.292    -516.666    -185.781
  H     -668.250    -517.642    -177.717
  H     -667.393    -517.354    -180.027
  H     -667.531    -520.120    -182.483
  H     -669.528    -518.101    -182.480
  H     -667.904    -516.356    -182.020
  H     -666.082    -517.776    -184.018
  H     -670.054    -520.787    -176.809
  H     -665.198    -515.612    -183.385
  H     -669.499    -519.230    -176.207
  H     -665.546    -515.896    -181.667
  P     -669.054    -514.875    -183.920
  C     -667.710    -513.228    -185.384
  O     -668.224    -513.525    -184.088
  O     -669.958    -514.925    -182.742
  O     -669.907    -514.918    -185.283
  H     -670.854    -514.801    -185.079
  H     -667.452    -512.181    -185.435
  H     -668.452    -513.467    -186.156
  H     -666.795    -513.823    -185.554
  H     -661.515    -513.675    -182.598
  H     -660.687    -515.211    -182.687
  H     -662.003    -514.991    -181.558

 3  4  5  6  7  8  9  10  11  12  13  23  27  28  29  30  32 0
 6-311+G(2d,p)
 ****
 34  35 0
 6-311+G(2d,p)
 ****
 1  2  14  15  16  17  18  19  20  21  22  24  25  26 0
 3-21G
 ****
 31  33  36  37  38  39  40  41  42  43  44  45  46 0
 3-21G
 ****


