%nproc=1
%NoSave
%Mem=1900MB
#P OB98/GEN NMR

erre ene a

0 1
  C      124.830      43.679    -120.327
  O      124.553      42.978    -121.526
  P      123.143      42.216    -121.625
  C      124.606      40.098    -121.248
  O      123.381      40.771    -120.974
  C      124.493      38.620    -120.889
  O      124.127      38.473    -119.506
  C      123.428      37.873    -121.676
  O      123.888      37.579    -122.981
  C      123.217      36.643    -120.803
  O      124.162      35.610    -121.127
  C      123.469      37.193    -119.379
  N      122.248      37.297    -118.598
  C      121.733      36.091    -118.108
  O      122.301      35.027    -118.365
  N      120.572      36.119    -117.377
  C      119.977      37.251    -117.159
  N      118.832      37.220    -116.424
  C      120.475      38.541    -117.674
  C      121.602      38.492    -118.384
  O      123.008      41.905    -123.188
  O      121.979      42.986    -121.095
  H      124.158      34.999    -120.362
  H      122.070      41.829    -123.446
  H      119.941      39.456    -117.464
  H      122.036      39.392    -118.801
  H      124.165      36.541    -118.837
  H      122.220      36.214    -120.937
  H      122.501      38.458    -121.721
  H      125.477      38.154    -121.036
  H      118.511      36.319    -116.090
  H      125.405      40.547    -120.649
  H      118.308      38.047    -116.180
  H      124.851      40.225    -122.308
  P      122.936      36.703    -123.925
  C      124.781      34.922    -123.859
  O      123.403      35.189    -123.686
  O      123.531      37.012    -125.382
  O      121.470      36.968    -123.849
  H      122.965      36.604    -126.064
  H      124.987      33.905    -123.518
  H      125.383      35.621    -123.273
  H      125.045      34.999    -124.917
  H      125.795      44.136    -120.396
  H      124.817      42.996    -119.503
  H      124.087      44.434    -120.176

 3  4  5  6  7  8  9  10  11  12  13  21  23  27  28  29  30  32 0
 6-311+G(2d,p)
 ****
 34  35 0
 6-311+G(2d,p)
 ****
 1  2  14  15  16  17  18  19  20  22  24  25  26 0
 3-21G
 ****
 31  33  36  37  38  39  40  41  42  43  44  45  46 0
 3-21G
 ****


