%nproc=1
%NoSave
%Mem=1900MB
#P OB98/GEN NMR

erre ene a

0 1
  C      -20.941    -149.438     106.912
  O      -21.354    -148.626     107.994
  H      -21.765    -150.104     106.639
  H      -20.080    -150.049     107.197
  H      -20.688    -148.822     106.046
  P      -20.312    -147.562     108.583
  C      -19.164    -149.448     109.922
  O      -19.002    -148.400     108.975
  C      -18.328    -150.656     109.513
  O      -18.930    -151.327     108.389
  C      -16.898    -150.309     109.098
  O      -16.077    -150.137     110.239
  C      -16.543    -151.541     108.283
  O      -16.248    -152.640     109.167
  C      -17.857    -151.804     107.530
  N      -20.694    -151.190     103.373
  C      -20.884    -152.018     104.464
  N      -21.963    -152.829     104.415
  N      -20.079    -152.062     105.493
  C      -19.008    -151.247     105.367
  C      -18.701    -150.394     104.330
  C      -19.628    -150.312     103.221
  O      -19.508    -149.581     102.244
  N      -17.493    -149.776     104.527
  C      -17.089    -150.224     105.699
  N      -17.966    -151.133     106.244
  O      -20.816    -146.680     109.685
  O      -19.846    -146.723     107.305
  H      -15.456    -152.384     109.674
  H      -20.396    -145.927     107.185
  H      -21.340    -151.216     102.602
  H      -16.174    -149.924     106.196
  H      -18.029    -152.872     107.351
  H      -15.674    -151.396     107.641
  H      -22.437    -153.039     103.545
  H      -16.868    -149.436     108.438
  H      -22.093    -153.480     105.181
  H      -18.331    -151.365     110.351
  H      -20.227    -149.709     109.949
  H      -18.859    -149.111     110.918
  P      -15.398    -148.719     110.567
  C      -13.026    -149.729     110.737
  O      -13.892    -148.848     110.034
  O      -15.521    -148.278     111.986
  O      -16.052    -147.710     109.517
  H      -16.890    -147.295     109.836
  H      -12.059    -149.719     110.279
  H      -13.425    -150.721     110.706
  H      -12.942    -149.410     111.755

 6  7  8  9  10  11  12  13  14  15  26  29  33  34 0
 6-311+G(2d,p)
 ****
 36  38  39  40  41 0
 6-311+G(2d,p)
 ****
 1  2  3  4  5  16  17  18  19  20  21  22  23  24  25 0
 3-21G
 ****
 27  28  30  31  32  35  37  42  43  44  45  46  47 0
 3-21G
 ****
 48  49 0
 3-21G
 ****


