%nproc=1
%NoSave
%Mem=1900MB
#P OB98/GEN NMR

erre ene a

0 1
  C      210.208     -63.090      50.013
  O      210.317     -63.607      51.324
  H      211.197     -62.847      49.615
  H      209.747     -63.849      49.374
  H      209.576     -62.197      50.012
  P      211.069     -62.678      52.393
  C      209.295     -63.547      54.070
  O      210.661     -63.232      53.844
  C      209.128     -64.227      55.423
  O      209.664     -63.389      56.471
  C      207.687     -64.500      55.827
  O      207.161     -65.653      55.181
  C      207.849     -64.726      57.324
  O      208.310     -66.068      57.563
  C      208.951     -63.721      57.691
  N      208.114     -61.173      62.070
  C      208.638     -62.395      61.825
  N      208.820     -63.012      60.639
  C      208.410     -62.229      59.628
  C      207.859     -60.962      59.724
  C      207.706     -60.433      61.016
  N      207.155     -59.192      61.257
  N      207.574     -60.459      58.474
  C      207.946     -61.401      57.633
  N      208.453     -62.496      58.284
  O      210.284     -61.284      52.296
  O      212.533     -62.498      52.165
  H      208.349     -66.181      58.532
  H      210.919     -60.554      52.424
  H      208.960     -62.954      62.701
  H      207.873     -61.335      56.556
  H      209.683     -64.159      58.379
  H      206.921     -64.593      57.882
  H      207.052     -63.622      55.660
  H      209.712     -65.157      55.408
  H      208.942     -64.223      53.284
  H      207.253     -58.790      62.174
  H      206.859     -58.641      60.458
  H      208.709     -62.622      54.032
  P      205.569     -65.736      54.995
  C      206.117     -67.609      53.286
  O      205.285     -67.180      54.359
  O      205.291     -64.735      53.777
  O      204.770     -65.376      56.202
  H      204.377     -64.397      53.826
  H      205.812     -68.583      52.966
  H      207.134     -67.644      53.615
  H      206.030     -66.922      52.470

 6  7  8  9  10  11  12  13  14  15  25  28  32  33  34  35 0
 6-311+G(2d,p)
 ****
 36  39  40 0
 6-311+G(2d,p)
 ****
 1  2  3  4  5  16  17  18  19  20  21  22  23  24 0
 3-21G
 ****
 26  27  29  30  31  37  38  41  42  43  44  45  46  47  48 0
 3-21G
 ****


