%nproc=1
%NoSave
%Mem=1900MB
#P OB98/GEN NMR

erre ene a

0 1
  C      -48.935     -99.813     -31.904
  O      -47.741    -100.550     -32.087
  H      -49.341    -100.047     -30.916
  H      -49.677    -100.077     -32.660
  H      -48.723     -98.741     -31.950
  P      -47.100    -100.597     -33.558
  C      -46.038     -98.821     -35.098
  O      -46.891     -99.059     -33.981
  C      -46.441     -97.549     -35.842
  O      -47.737     -97.707     -36.459
  C      -46.582     -96.325     -34.951
  O      -45.376     -95.867     -34.383
  C      -47.393     -95.388     -35.833
  O      -46.580     -94.684     -36.771
  C      -48.316     -96.388     -36.574
  N      -49.685     -96.354     -36.073
  C      -50.687     -96.408     -37.035
  O      -50.466     -96.456     -38.246
  N      -51.970     -96.369     -36.562
  C      -52.337     -96.237     -35.255
  O      -53.508     -96.187     -34.896
  C      -51.233     -96.145     -34.286
  C      -49.976     -96.209     -34.732
  O      -47.857    -101.406     -34.569
  O      -45.606    -101.110     -33.310
  H      -47.184     -94.165     -37.336
  H      -45.188    -101.414     -34.152
  H      -52.712     -96.422     -37.242
  H      -51.486     -96.027     -33.241
  H      -49.143     -96.146     -34.035
  H      -48.342     -96.154     -37.647
  H      -47.936     -94.641     -35.249
  H      -47.229     -96.590     -34.104
  H      -45.712     -97.378     -36.641
  H      -46.127     -99.678     -35.775
  H      -45.000     -98.746     -34.756
  P      -45.287     -95.112     -32.982
  C      -45.634     -95.924     -30.522
  O      -46.052     -95.990     -31.879
  O      -45.528     -93.638     -33.000
  O      -43.739     -95.349     -32.584
  H      -43.442     -94.552     -32.101
  H      -46.248     -96.568     -29.928
  H      -45.725     -94.918     -30.169
  H      -44.613     -96.237     -30.448

 6  7  8  9  10  11  12  13  14  15  16  26  31  32  33  34  35 0
 6-311+G(2d,p)
 ****
 36  37 0
 6-311+G(2d,p)
 ****
 1  2  3  4  5  17  18  19  20  21  22  23  24  25 0
 3-21G
 ****
 27  28  29  30  38  39  40  41  42  43  44  45 0
 3-21G
 ****


