%nproc=1
%NoSave
%Mem=1900MB
#P OB98/GEN NMR

erre ene a

0 1
  C     -616.426     136.226     112.280
  O     -617.531     135.370     112.071
  H     -615.620     135.649     112.750
  H     -616.699     137.054     112.942
  H     -616.068     136.617     111.319
  P     -618.839     136.036     111.420
  C     -619.530     137.013     113.707
  O     -619.153     137.298     112.364
  C     -619.002     138.089     114.658
  O     -619.469     139.381     114.193
  C     -619.481     137.911     116.103
  O     -618.420     138.266     116.995
  C     -620.615     138.918     116.232
  O     -620.817     139.340     117.575
  C     -620.144     140.029     115.285
  N     -623.892     143.209     116.668
  C     -622.843     142.692     117.354
  N     -621.882     141.860     116.900
  C     -622.049     141.609     115.588
  C     -623.068     142.059     114.761
  C     -624.028     142.892     115.357
  N     -625.107     143.406     114.673
  N     -622.912     141.548     113.482
  C     -621.817     140.817     113.540
  N     -621.265     140.807     114.790
  O     -619.983     135.112     111.185
  O     -618.231     136.725     110.113
  H     -620.039     139.865     117.858
  H     -617.392     137.182     110.303
  H     -622.778     142.975     118.402
  H     -621.392     140.266     112.706
  H     -619.448     140.726     115.762
  H     -621.543     138.464     115.868
  H     -619.816     136.893     116.312
  H     -617.902     138.107     114.598
  H     -619.138     136.033     114.005
  H     -625.747     144.010     115.182
  H     -625.223     143.198     113.695
  H     -620.623     136.969     113.746
  P     -617.741     137.106     117.875
  C     -619.054     137.565     120.061
  O     -618.789     136.643     119.000
  O     -616.355     137.380     118.358
  O     -617.753     135.851     116.863
  H     -616.935     135.340     116.984
  H     -619.764     137.136     120.737
  H     -619.451     138.472     119.655
  H     -618.145     137.777     120.585

 6  7  8  9  10  11  12  13  14  15  25  28  32  33  34  35 0
 6-311+G(2d,p)
 ****
 36  39  40 0
 6-311+G(2d,p)
 ****
 1  2  3  4  5  16  17  18  19  20  21  22  23  24 0
 3-21G
 ****
 26  27  29  30  31  37  38  41  42  43  44  45  46  47 0
 3-21G
 ****
 48 0
 3-21G
 ****


