%nproc=1
%NoSave
%Mem=1900MB
#P OB98/GEN NMR

erre ene a

0 1
  C      155.411      70.330    -136.061
  O      155.085      71.658    -136.410
  H      156.457      70.298    -135.742
  H      155.291      69.676    -136.927
  H      154.780      69.981    -135.239
  P      153.551      71.974    -136.761
  C      151.532      70.871    -135.557
  O      152.703      71.664    -135.432
  C      150.687      70.965    -134.286
  O      151.469      70.469    -133.168
  C      150.236      72.388    -133.949
  O      148.906      72.336    -133.428
  C      151.193      72.819    -132.853
  O      150.646      73.835    -132.014
  C      151.476      71.487    -132.147
  N      152.746      71.522    -131.426
  C      152.866      72.479    -130.411
  O      151.932      73.244    -130.170
  N      154.053      72.583    -129.736
  C      155.066      71.857    -130.100
  N      156.227      72.030    -129.411
  C      155.006      70.885    -131.209
  C      153.826      70.763    -131.815
  O      153.141      70.780    -137.743
  O      153.296      73.316    -137.359
  H      151.295      74.032    -131.303
  H      152.476      71.070    -138.395
  H      155.884      70.321    -131.490
  H      153.688      70.082    -132.643
  H      150.674      71.248    -131.437
  H      152.113      73.213    -133.301
  H      150.265      73.065    -134.810
  H      149.824      70.298    -134.392
  H      156.231      72.721    -128.670
  H      151.823      69.827    -135.714
  H      157.088      71.555    -129.637
  H      150.954      71.209    -136.425
  P      147.731      72.826    -134.403
  C      146.912      71.688    -136.590
  O      147.177      71.551    -135.200
  O      148.506      73.670    -135.521
  O      146.686      73.646    -133.717
  H      148.320      74.621    -135.409
  H      146.551      70.758    -136.978
  H      147.812      71.961    -137.100
  H      146.173      72.448    -136.739

 6  7  8  9  10  11  12  13  14  15  16  26  30  31  32  33  35 0
 6-311+G(2d,p)
 ****
 37  38 0
 6-311+G(2d,p)
 ****
 1  2  3  4  5  17  18  19  20  21  22  23  24  25 0
 3-21G
 ****
 27  28  29  34  36  39  40  41  42  43  44  45  46 0
 3-21G
 ****


