%nproc=1
%NoSave
%Mem=1900MB
#P OB98/GEN NMR

erre ene a

0 1
  C     -202.734     -15.251    -282.318
  O     -203.708     -14.235    -282.420
  H     -202.807     -15.699    -281.321
  H     -201.729     -14.836    -282.438
  H     -202.911     -16.027    -283.064
  P     -203.704     -13.279    -283.713
  C     -203.194     -11.252    -282.222
  O     -204.112     -11.821    -283.147
  C     -203.780     -10.010    -281.545
  O     -203.937      -8.947    -282.523
  C     -205.150     -10.248    -280.893
  O     -205.158      -9.682    -279.580
  C     -206.115      -9.497    -281.798
  O     -207.311      -9.124    -281.120
  C     -205.226      -8.346    -282.285
  N     -205.748      -7.690    -283.481
  C     -206.202      -6.379    -283.325
  O     -206.191      -5.842    -282.214
  N     -206.702      -5.712    -284.418
  C     -206.783      -6.322    -285.558
  N     -207.295      -5.618    -286.600
  C     -206.357      -7.727    -285.759
  C     -205.846      -8.341    -284.688
  O     -204.533     -13.766    -284.851
  O     -202.155     -13.102    -284.074
  H     -207.080      -8.479    -280.414
  H     -202.069     -12.804    -285.017
  H     -206.458      -8.197    -286.723
  H     -205.500      -9.370    -284.745
  H     -205.107      -7.585    -281.496
  H     -206.392     -10.136    -282.649
  H     -205.414     -11.300    -280.814
  H     -203.051      -9.638    -280.812
  H     -207.573      -4.659    -286.423
  H     -202.271     -10.995    -282.756
  H     -207.412      -5.995    -287.533
  H     -202.968     -12.004    -281.454
  P     -205.081     -10.724    -278.360
  C     -207.320     -10.535    -277.065
  O     -205.958     -10.136    -277.149
  O     -203.573     -10.577    -277.847
  O     -205.398     -12.129    -278.750
  H     -203.029     -11.309    -278.187
  H     -207.776     -10.070    -276.216
  H     -207.374     -11.599    -276.961
  H     -207.834     -10.237    -277.955

 6  7  8  9  10  11  12  13  14  15  16  26  30  31  32  33  35 0
 6-311+G(2d,p)
 ****
 37  38 0
 6-311+G(2d,p)
 ****
 1  2  3  4  5  17  18  19  20  21  22  23  24  25 0
 3-21G
 ****
 27  28  29  34  36  39  40  41  42  43  44  45  46 0
 3-21G
 ****


