%nproc=1
%NoSave
%Mem=1900MB
#P OB98/GEN NMR

erre ene a

0 1
  C       33.202     -19.434    -380.178
  O       33.325     -18.227    -379.450
  H       34.102     -19.571    -380.781
  H       32.338     -19.394    -380.844
  H       33.107     -20.283    -379.494
  P       32.120     -17.798    -378.486
  C       29.614     -17.266    -378.816
  O       30.856     -17.553    -379.444
  C       28.510     -17.163    -379.862
  O       28.336     -18.425    -380.538
  C       27.145     -16.786    -379.287
  O       27.067     -15.386    -379.074
  C       26.233     -17.277    -380.398
  O       26.265     -16.347    -381.499
  C       26.917     -18.597    -380.798
  N       23.206     -22.024    -380.332
  C       23.300     -20.926    -381.166
  N       22.233     -20.682    -381.957
  N       24.336     -20.126    -381.203
  C       25.296     -20.452    -380.307
  C       25.308     -21.507    -379.416
  C       24.184     -22.415    -379.427
  O       24.070     -23.410    -378.714
  N       26.425     -21.476    -378.622
  C       27.105     -20.428    -379.054
  N       26.453     -19.764    -380.067
  O       32.393     -16.662    -377.546
  O       31.743     -19.144    -377.710
  H       25.602     -16.656    -382.146
  H       32.225     -19.213    -376.866
  H       22.376     -22.589    -380.339
  H       28.066     -20.112    -378.672
  H       26.800     -18.819    -381.867
  H       25.193     -17.378    -380.092
  H       21.324     -21.082    -381.764
  H       26.918     -17.352    -378.375
  H       22.261     -19.854    -382.539
  H       28.831     -16.434    -380.616
  H       29.726     -16.320    -378.279
  H       29.362     -18.052    -378.090
  P       26.040     -14.769    -378.001
  C       23.570     -15.377    -377.551
  O       24.587     -15.196    -378.525
  O       26.205     -13.310    -377.747
  O       26.222     -15.676    -376.702
  H       26.934     -15.357    -376.091
  H       22.658     -15.659    -378.035
  H       23.422     -14.462    -377.016
  H       23.863     -16.146    -376.868

 6  7  8  9  10  11  12  13  14  15  26  29  33  34 0
 6-311+G(2d,p)
 ****
 36  38  39  40  41 0
 6-311+G(2d,p)
 ****
 1  2  3  4  5  16  17  18  19  20  21  22  23  24  25 0
 3-21G
 ****
 27  28  30  31  32  35  37  42  43  44  45  46  47 0
 3-21G
 ****
 48  49 0
 3-21G
 ****


