%nproc=1
%NoSave
%Mem=1900MB
#P OB98/GEN NMR

erre ene a

0 1
  C      208.730    -122.413     192.810
  O      209.787    -121.494     192.486
  P      211.308    -121.702     192.945
  C      213.667    -121.311     191.953
  O      212.262    -121.170     191.769
  C      214.409    -121.174     190.614
  O      214.277    -122.400     189.847
  C      213.878    -120.089     189.680
  O      214.228    -118.791     190.116
  C      214.519    -120.507     188.361
  O      215.856    -120.008     188.240
  C      214.542    -122.045     188.465
  N      213.598    -122.691     187.570
  C      213.845    -122.556     186.198
  O      214.769    -121.850     185.800
  N      213.021    -123.221     185.317
  C      211.984    -123.862     185.760
  N      211.218    -124.511     184.843
  C      211.615    -123.920     187.191
  C      212.462    -123.322     188.028
  O      211.629    -123.094     193.393
  O      211.544    -120.649     194.131
  H      212.246    -120.973     194.720
  H      216.184    -120.277     187.355
  H      210.728    -124.435     187.510
  H      212.275    -123.327     189.093
  H      215.553    -122.419     188.262
  H      213.955    -120.132     187.496
  H      212.790    -120.182     189.606
  H      215.473    -121.011     190.828
  H      211.507    -124.463     183.870
  H      213.866    -122.304     192.370
  H      210.406    -125.060     185.084
  H      214.014    -120.553     192.668
  P      213.034    -117.847     190.612
  C      212.910    -115.521     191.765
  O      213.649    -116.408     190.945
  O      212.651    -118.441     192.053
  O      211.845    -117.822     189.708
  H      211.685    -118.420     192.175
  H      213.607    -114.853     192.275
  H      212.314    -116.057     192.508
  H      212.247    -114.921     191.132
  H      207.810    -122.059     192.394
  H      208.636    -122.488     193.873
  H      208.958    -123.376     192.404

 3  4  5  6  7  8  9  10  11  12  13  24  27  28  29  30  32 0
 6-311+G(2d,p)
 ****
 34  35 0
 6-311+G(2d,p)
 ****
 1  2  14  15  16  17  18  19  20  21  22  23  25  26 0
 3-21G
 ****
 31  33  36  37  38  39  40  41  42  43  44  45  46 0
 3-21G
 ****


