%nproc=1
%NoSave
%Mem=1900MB
#P OB98/GEN NMR

erre ene a

0 1
  C     -105.709     144.315      32.013
  O     -105.953     144.832      33.306
  H     -106.623     143.838      31.650
  H     -104.909     143.570      32.044
  H     -105.439     145.126      31.332
  P     -104.716     145.547      34.037
  C     -102.554     144.670      35.130
  O     -103.829     144.330      34.599
  C     -102.149     143.680      36.223
  O     -102.950     143.943      37.404
  C     -102.369     142.217      35.830
  O     -101.303     141.425      36.351
  C     -103.665     141.850      36.531
  O     -103.769     140.452      36.787
  C     -103.594     142.717      37.788
  N     -107.015     141.270      41.284
  C     -105.733     140.906      41.070
  N     -104.885     141.356      40.121
  C     -105.469     142.310      39.375
  C     -106.766     142.782      39.472
  C     -107.563     142.213      40.481
  N     -108.878     142.559      40.691
  N     -107.010     143.731      38.499
  C     -105.874     143.841      37.835
  N     -104.919     142.989      38.318
  O     -105.073     146.594      35.039
  O     -103.854     146.056      32.791
  H     -102.936     140.151      37.205
  H     -103.788     145.373      32.098
  H     -105.337     140.151      41.743
  H     -105.699     144.506      36.995
  H     -103.010     142.250      38.590
  H     -104.518     142.142      35.905
  H     -102.439     142.080      34.751
  H     -101.106     143.866      36.498
  H     -102.576     145.683      35.545
  H     -109.373     142.112      41.446
  H     -109.299     143.273      40.113
  H     -101.829     144.646      34.310
  P     -100.350     140.653      35.319
  C     -100.330     138.382      34.091
  O     -101.109     139.332      34.813
  O      -98.938     140.455      35.757
  O     -100.413     141.596      34.022
  H      -99.533     141.611      33.598
  H     -100.947     137.553      33.812
  H      -99.527     138.037      34.708
  H      -99.931     138.842      33.211

 6  7  8  9  10  11  12  13  14  15  25  28  32  33  34  35 0
 6-311+G(2d,p)
 ****
 36  39  40 0
 6-311+G(2d,p)
 ****
 1  2  3  4  5  16  17  18  19  20  21  22  23  24 0
 3-21G
 ****
 26  27  29  30  31  37  38  41  42  43  44  45  46  47 0
 3-21G
 ****
 48 0
 3-21G
 ****


