%nproc=1
%NoSave
%Mem=1900MB
#P OB98/GEN NMR

erre ene a

0 1
  C      571.944     446.539     186.927
  O      572.427     446.068     185.678
  P      572.112     444.554     185.280
  C      574.516     443.656     185.681
  O      573.488     443.917     184.740
  C      575.716     442.980     185.003
  O      575.309     441.659     184.544
  C      576.281     443.738     183.793
  O      577.690     443.521     183.794
  C      575.616     443.014     182.633
  O      576.234     443.245     181.385
  C      575.651     441.582     183.150
  N      574.824     439.023     178.787
  C      575.878     439.755     179.222
  N      576.030     440.405     180.398
  C      574.939     440.229     181.169
  C      573.791     439.541     180.861
  C      573.746     438.903     179.602
  N      572.675     438.171     179.166
  N      572.877     439.599     181.907
  C      573.482     440.329     182.817
  N      574.740     440.717     182.437
  O      571.230     444.689     183.954
  O      571.415     443.747     186.341
  H      575.809     442.729     180.681
  H      570.516     444.030     183.936
  H      576.709     439.838     178.514
  H      573.044     440.605     183.764
  H      576.652     441.138     183.067
  H      574.580     443.367     182.546
  H      576.080     444.817     183.827
  H      576.502     442.828     185.763
  H      574.133     442.983     186.458
  H      572.651     437.936     178.179
  H      571.802     438.256     179.694
  H      574.824     444.587     186.167
  P      578.647     444.558     183.029
  C      579.804     442.684     181.712
  O      579.959     443.697     182.684
  O      579.164     445.460     184.245
  O      578.006     445.315     181.916
  H      579.519     444.915     184.977
  H      580.782     442.237     181.491
  H      579.397     443.103     180.774
  H      579.143     441.895     182.082
  H      572.229     447.562     187.057
  H      572.362     445.950     187.716
  H      570.877     446.460     186.950

 3  4  5  6  7  8  9  10  11  12  22  25  29  30  31  32 0
 6-311+G(2d,p)
 ****
 33  36  37 0
 6-311+G(2d,p)
 ****
 1  2  13  14  15  16  17  18  19  20  21  23  24  26 0
 3-21G
 ****
 27  28  34  35  38  39  40  41  42  43  44  45  46  47  48 0
 3-21G
 ****


