%nproc=1
%NoSave
%Mem=1900MB
#P OB98/GEN NMR

erre ene a

0 1
  C     -165.182     641.746    -147.454
  O     -165.447     640.758    -146.458
  P     -166.996     640.424    -146.197
  C     -166.851     637.893    -145.665
  O     -167.238     638.885    -146.602
  C     -167.793     636.683    -145.727
  O     -169.150     637.078    -145.356
  C     -167.879     636.036    -147.117
  O     -168.043     634.624    -146.906
  C     -169.151     636.652    -147.677
  O     -169.669     635.957    -148.805
  C     -170.020     636.638    -146.422
  N     -174.905     636.816    -147.889
  C     -173.979     635.823    -147.927
  N     -172.691     635.857    -147.516
  C     -172.391     637.071    -147.014
  C     -173.223     638.173    -146.913
  C     -174.540     638.016    -147.379
  N     -175.476     639.022    -147.359
  N     -172.533     639.249    -146.368
  C     -171.295     638.810    -146.219
  N     -171.185     637.482    -146.518
  O     -167.754     641.246    -147.344
  O     -167.463     640.796    -144.830
  H     -169.817     635.020    -148.574
  H     -168.106     642.081    -146.990
  H     -174.322     634.882    -148.344
  H     -170.456     639.404    -145.901
  H     -170.366     635.628    -146.171
  H     -168.949     637.681    -147.996
  H     -166.995     636.207    -147.738
  H     -167.453     635.944    -144.990
  H     -166.860     638.303    -144.655
  H     -176.396     638.812    -147.716
  H     -175.240     639.932    -146.997
  H     -165.815     637.593    -145.870
  P     -167.067     633.612    -147.678
  C     -167.297     632.038    -145.664
  O     -166.398     632.733    -146.513
  O     -165.853     634.596    -148.059
  O     -167.655     632.884    -148.844
  H     -165.563     635.098    -147.280
  H     -166.715     631.425    -144.973
  H     -167.955     631.394    -146.251
  H     -167.891     632.752    -145.087
  H     -164.125     641.887    -147.544
  H     -165.643     642.670    -147.172
  H     -165.579     641.421    -148.393

 3  4  5  6  7  8  9  10  11  12  22  25  29  30  31  32 0
 6-311+G(2d,p)
 ****
 33  36  37 0
 6-311+G(2d,p)
 ****
 1  2  13  14  15  16  17  18  19  20  21  23  24  26 0
 3-21G
 ****
 27  28  34  35  38  39  40  41  42  43  44  45  46  47  48 0
 3-21G
 ****


