%nproc=1
%NoSave
%Mem=1900MB
#P OB98/GEN NMR

erre ene a

0 1
  C      189.118       2.842     251.159
  O      189.006       3.773     252.221
  P      190.308       4.639     252.590
  C      191.965       2.755     253.315
  O      191.114       3.826     253.708
  C      192.746       2.245     254.527
  O      193.578       3.290     255.071
  C      191.855       1.795     255.679
  O      191.315       0.503     255.450
  C      192.822       1.844     256.853
  O      193.611       0.647     256.923
  C      193.700       3.058     256.490
  N      193.363       4.250     257.262
  C      193.653       4.196     258.621
  O      194.151       3.205     259.160
  N      193.325       5.307     259.349
  C      192.697       6.420     258.872
  O      192.376       7.364     259.589
  C      192.383       6.410     257.432
  C      192.720       5.343     256.708
  O      189.718       5.896     253.379
  O      191.129       5.054     251.414
  H      192.997      -0.080     257.149
  H      190.243       6.695     253.174
  H      193.554       5.297     260.330
  H      191.881       7.276     257.023
  H      192.485       5.308     255.647
  H      194.758       2.826     256.662
  H      192.299       1.942     257.811
  H      191.053       2.525     255.844
  H      193.395       1.421     254.200
  H      192.657       3.110     252.550
  H      191.355       1.956     252.883
  P      189.722       0.401     255.264
  C      189.204       0.560     257.820
  O      189.188      -0.219     256.648
  O      189.621      -0.798     254.200
  O      189.100       1.682     254.827
  H      190.337      -1.450     254.312
  H      188.994       1.611     257.611
  H      190.184       0.473     258.296
  H      188.443       0.181     258.506
  H      188.183       2.340     251.025
  H      189.877       2.125     251.392
  H      189.379       3.358     250.258

 3  4  5  6  7  8  9  10  11  12  13  23  28  29  30  31  32 0
 6-311+G(2d,p)
 ****
 33  34 0
 6-311+G(2d,p)
 ****
 1  2  14  15  16  17  18  19  20  21  22  24  25  26 0
 3-21G
 ****
 27  35  36  37  38  39  40  41  42  43  44  45 0
 3-21G
 ****


