%nproc=1
%NoSave
%Mem=1900MB
#P OB98/GEN NMR

erre ene a

0 1
  C      826.187    -410.727    1014.283
  O      826.497    -410.650    1015.669
  P      825.292    -410.297    1016.679
  C      824.410    -412.663    1017.316
  O      825.170    -411.514    1017.711
  C      825.027    -413.940    1017.905
  O      826.228    -414.289    1017.210
  C      825.420    -413.815    1019.363
  O      824.326    -413.990    1020.248
  C      826.390    -414.985    1019.508
  O      825.656    -416.211    1019.673
  C      827.117    -414.969    1018.152
  N      832.053    -415.494    1019.109
  C      831.082    -416.446    1018.943
  N      831.452    -417.737    1019.141
  N      829.825    -416.189    1018.646
  C      829.587    -414.856    1018.489
  C      830.483    -413.811    1018.612
  C      831.847    -414.125    1018.962
  O      832.746    -413.323    1019.160
  N      829.873    -412.609    1018.375
  C      828.618    -412.914    1018.101
  N      828.396    -414.270    1018.210
  O      823.982    -410.459    1015.767
  O      825.366    -408.940    1017.297
  H      825.060    -416.076    1020.449
  H      823.219    -410.018    1016.186
  H      832.996    -415.751    1019.347
  H      827.852    -412.198    1017.853
  H      827.285    -415.968    1017.772
  H      827.055    -414.889    1020.365
  H      832.380    -418.007    1019.455
  H      825.955    -412.877    1019.563
  H      830.735    -418.461    1019.114
  H      824.298    -414.751    1017.777
  H      824.393    -412.727    1016.216
  H      823.386    -412.535    1017.678
  P      824.478    -413.395    1021.737
  C      823.103    -411.223    1021.257
  O      823.203    -412.460    1021.964
  O      825.688    -412.350    1021.582
  O      824.754    -414.433    1022.787
  H      826.156    -412.238    1022.428
  H      822.080    -410.868    1021.324
  H      823.364    -411.357    1020.207
  H      823.789    -410.488    1021.719
  H      827.072    -410.967    1013.732
  H      825.804    -409.785    1013.950
  H      825.451    -411.487    1014.124

 3  4  5  6  7  8  9  10  11  12  23  26  30  31 0
 6-311+G(2d,p)
 ****
 33  35  36  37  38 0
 6-311+G(2d,p)
 ****
 1  2  13  14  15  16  17  18  19  20  21  22  24  25 0
 3-21G
 ****
 27  28  29  32  34  39  40  41  42  43  44  45  46  47  48  49 0
 3-21G
 ****


