%nproc=1
%NoSave
%Mem=1900MB
#P OB98/GEN NMR

erre ene a

0 1
  C       34.793     -37.536     120.852
  O       35.445     -38.289     121.856
  H       34.697     -36.503     121.197
  H       33.793     -37.942     120.671
  H       35.374     -37.549     119.926
  P       35.841     -39.797     121.486
  C       33.998     -41.353     122.524
  O       34.475     -40.639     121.391
  C       33.427     -40.378     123.552
  O       32.377     -39.572     122.979
  C       32.757     -41.055     124.737
  O       33.678     -41.669     125.609
  C       32.022     -39.872     125.350
  O       32.912     -39.050     126.120
  C       31.543     -39.119     124.082
  N       30.128     -39.328     123.809
  C       29.308     -38.201     123.958
  O       29.793     -37.118     124.287
  N       27.957     -38.342     123.756
  C       27.470     -39.493     123.411
  N       26.123     -39.568     123.236
  C       28.302     -40.698     123.220
  C       29.607     -40.546     123.440
  O       36.492     -40.330     122.846
  O       36.712     -39.950     120.281
  H       33.482     -38.586     125.476
  H       35.923     -40.210     123.624
  H       27.854     -41.636     122.925
  H       30.287     -41.379     123.322
  H       31.715     -38.042     124.186
  H       31.221     -40.188     126.021
  H       32.005     -41.773     124.388
  H       34.235     -39.709     123.874
  H       25.582     -38.725     123.398
  H       34.794     -41.958     122.969
  H       25.629     -40.415     123.001
  H       33.217     -42.038     122.179
  P       33.197     -42.786     126.653
  C       33.158     -42.171     129.151
  O       32.532     -41.996     127.882
  O       34.237     -43.782     127.043
  O       31.918     -43.430     125.933
  H       31.195     -42.804     125.750
  H       32.633     -41.602     129.889
  H       34.173     -41.836     129.097
  H       33.138     -43.207     129.419

 6  7  8  9  10  11  12  13  14  15  16  26  30  31  32  33  35 0
 6-311+G(2d,p)
 ****
 37  38 0
 6-311+G(2d,p)
 ****
 1  2  3  4  5  17  18  19  20  21  22  23  24  25 0
 3-21G
 ****
 27  28  29  34  36  39  40  41  42  43  44  45  46 0
 3-21G
 ****


