%nproc=1
%NoSave
%Mem=1900MB
#P OB98/GEN NMR

erre ene a

0 1
  C     -310.133      85.014    -339.191
  O     -308.806      84.934    -339.667
  H     -310.748      84.291    -339.738
  H     -310.537      86.015    -339.362
  H     -310.174      84.773    -338.123
  P     -307.727      85.893    -338.958
  C     -306.906      83.894    -337.510
  O     -307.404      85.229    -337.533
  C     -305.530      83.867    -336.842
  O     -305.645      84.346    -335.482
  C     -304.911      82.478    -336.739
  O     -304.328      82.061    -337.960
  C     -303.896      82.688    -335.621
  O     -302.676      83.255    -336.115
  C     -304.609      83.696    -334.706
  N     -303.552      80.836    -330.618
  C     -302.763      81.370    -331.582
  N     -303.124      82.141    -332.628
  C     -304.453      82.351    -332.625
  C     -305.383      81.863    -331.722
  C     -304.887      81.069    -330.673
  N     -305.694      80.497    -329.715
  N     -306.659      82.257    -332.079
  C     -306.500      82.978    -333.174
  N     -305.186      83.059    -333.538
  O     -308.593      87.190    -338.584
  O     -306.536      86.233    -339.792
  H     -302.932      83.935    -336.772
  H     -308.499      87.857    -339.290
  H     -301.703      81.148    -331.493
  H     -307.300      83.441    -333.741
  H     -303.934      84.481    -334.350
  H     -303.641      81.745    -335.133
  H     -305.666      81.751    -336.402
  H     -304.862      84.553    -337.391
  H     -306.816      83.522    -338.536
  H     -307.611      83.264    -336.959
  H     -305.272      79.925    -329.007
  H     -306.702      80.580    -329.810
  P     -304.344      80.502    -338.327
  C     -306.487      80.272    -339.793
  O     -305.881      80.066    -338.524
  O     -303.921      79.797    -336.952
  O     -303.443      80.119    -339.456
  H     -302.979      79.550    -336.971
  H     -307.502      79.933    -339.763
  H     -305.950      79.723    -340.538
  H     -306.466      81.314    -340.033

 6  7  8  9  10  11  12  13  14  15  25  28  32  33  34  35 0
 6-311+G(2d,p)
 ****
 36  37  40 0
 6-311+G(2d,p)
 ****
 1  2  3  4  5  16  17  18  19  20  21  22  23  24 0
 3-21G
 ****
 26  27  29  30  31  38  39 41  42  43  44  45  46  47  48 0
 3-21G
 ****


