%nproc=1
%NoSave
%Mem=1900MB
#P OB98/GEN NMR

erre ene a

0 1
  C      151.332     194.416     -85.127
  O      152.681     194.521     -84.715
  H      150.769     193.870     -84.360
  H      151.274     193.861     -86.067
  H      150.888     195.407     -85.248
  P      153.632     195.462     -85.596
  C      153.627     197.439     -83.916
  O      153.264     196.975     -85.209
  C      154.876     198.320     -84.002
  O      154.653     199.418     -84.918
  C      155.290     198.949     -82.674
  O      156.053     198.048     -81.882
  C      156.146     200.104     -83.178
  O      157.443     199.608     -83.581
  C      155.350     200.582     -84.397
  N      154.520     205.581     -84.296
  C      155.659     204.878     -84.647
  N      156.733     205.612     -85.015
  N      155.742     203.572     -84.633
  C      154.592     202.969     -84.236
  C      153.403     203.560     -83.870
  C      153.328     205.002     -83.896
  O      152.337     205.676     -83.618
  N      152.462     202.625     -83.536
  C      153.086     201.466     -83.684
  N      154.382     201.626     -84.098
  O      153.036     195.310     -87.077
  O      155.084     195.125     -85.558
  H      157.934     200.363     -83.944
  H      153.774     195.337     -87.719
  H      154.518     206.592     -84.316
  H      152.639     200.501     -83.508
  H      155.998     200.963     -85.194
  H      156.322     200.862     -82.408
  H      156.751     206.621     -84.997
  H      154.429     199.345     -82.132
  H      157.567     205.117     -85.302
  H      155.688     197.712     -84.416
  H      153.836     196.583     -83.269
  H      152.793     198.012     -83.492
  P      155.369     197.485     -80.541
  C      155.193     195.104     -81.560
  O      154.501     196.214     -80.999
  O      154.256     198.590     -80.207
  O      156.306     197.264     -79.402
  H      154.036     198.562     -79.259
  H      154.491     194.338     -81.816
  H      155.893     194.722     -80.846
  H      155.716     195.417     -82.440

 6  7  8  9  10  11  12  13  14  15  26  29  33  34 0
 6-311+G(2d,p)
 ****
 36  38  39  40  41 0
 6-311+G(2d,p)
 ****
 1  2  3  4  5  16  17  18  19  20  21  22  23  24  25 0
 3-21G
 ****
 27  28  30  31  32  35  37  42  43  44  45  46  47 0
 3-21G
 ****
 48  49 0
 3-21G
 ****


