%nproc=1
%NoSave
%Mem=1900MB
#P OB98/GEN NMR

erre ene a

0 1
  C       48.604     -21.947      48.123
  O       49.183     -20.844      48.789
  P       48.258     -19.666      49.357
  C       49.772     -17.923      48.227
  O       48.437     -18.385      48.410
  C       50.011     -17.546      46.767
  O       49.776     -18.678      45.898
  C       49.090     -16.452      46.250
  O       49.432     -15.181      46.766
  C       49.270     -16.608      44.746
  O       50.474     -15.962      44.306
  C       49.401     -18.140      44.606
  N       48.183     -18.759      44.105
  C       47.980     -18.686      42.723
  O       48.761     -18.056      42.010
  N       46.888     -19.324      42.189
  C       46.015     -19.873      42.973
  N       44.986     -20.541      42.384
  C       46.111     -19.828      44.447
  C       47.221     -19.280      44.938
  O       48.401     -19.391      50.816
  O       46.767     -20.148      49.017
  H       46.222     -20.077      49.824
  H       50.419     -15.035      44.613
  H       45.322     -20.242      45.056
  H       47.389     -19.224      46.009
  H       50.227     -18.389      43.930
  H       48.442     -16.171      44.179
  H       48.052     -16.688      46.519
  H       51.062     -17.245      46.663
  H       44.963     -20.566      41.372
  H       50.460     -18.721      48.520
  H       44.453     -21.258      42.869
  H       49.947     -17.063      48.881
  P       48.284     -14.384      47.554
  C       48.430     -12.376      45.925
  O       47.612     -13.363      46.520
  O       49.109     -13.434      48.545
  O       47.327     -15.252      48.304
  H       48.632     -13.351      49.392
  H       47.936     -12.009      45.022
  H       49.410     -12.779      45.652
  H       48.558     -11.541      46.620
  H       49.374     -22.624      47.819
  H       48.070     -21.603      47.262
  H       47.929     -22.449      48.784

 3  4  5  6  7  8  9  10  11  12  13  24  27  28  29  30  32 0
 6-311+G(2d,p)
 ****
 34  35 0
 6-311+G(2d,p)
 ****
 1  2  14  15  16  17  18  19  20  21  22  23  25  26 0
 3-21G
 ****
 31  33  36  37  38  39  40  41  42  43  44  45  46 0
 3-21G
 ****


