%nproc=1
%NoSave
%Mem=1900MB
#P OB98/GEN NMR

erre ene a

0 1
  C      112.249     572.706     174.177
  O      110.977     573.267     174.455
  H      112.718     572.414     175.124
  H      112.884     573.449     173.687
  H      112.150     571.823     173.541
  P      110.013     573.556     173.209
  C      107.476     573.247     172.734
  O      108.523     573.189     173.689
  C      106.139     572.921     173.404
  O      106.184     571.544     173.884
  C      105.804     573.813     174.610
  O      104.388     574.042     174.630
  C      106.185     572.950     175.797
  O      105.528     573.298     177.004
  C      105.803     571.562     175.274
  N      106.462     570.481     176.011
  C      105.802     569.977     177.134
  O      104.672     570.310     177.491
  N      106.498     569.037     177.858
  C      107.757     568.591     177.593
  O      108.338     567.769     178.293
  C      108.412     569.170     176.407
  C      107.745     570.073     175.685
  O      110.379     572.377     172.190
  O      110.148     574.908     172.589
  H      111.103     572.648     171.596
  H      105.613     574.265     177.115
  H      106.034     568.662     178.666
  H      109.415     568.849     176.175
  H      108.202     570.539     174.813
  H      104.718     571.426     175.317
  H      107.271     573.012     175.973
  H      106.330     574.775     174.613
  H      105.341     572.968     172.654
  H      107.665     572.519     171.939
  H      107.440     574.255     172.296
  P      103.877     575.535     174.343
  C      101.759     576.382     173.039
  O      102.354     575.384     173.859
  O      104.686     575.889     173.000
  O      104.107     576.462     175.488
  H      104.800     575.120     172.417
  H      100.748     576.108     172.821
  H      102.310     576.468     172.126
  H      101.772     577.320     173.553

 6  7  8  9  10  11  12  13  14  15  16  27  31  32  33  34  35 0
 6-311+G(2d,p)
 ****
 36  37 0
 6-311+G(2d,p)
 ****
 1  2  3  4  5  17  18  19  20  21  22  23  24  25 0
 3-21G
 ****
 26  28  29  30  38  39  40  41  42  43  44  45 0
 3-21G
 ****


