%nproc=1
%NoSave
%Mem=1900MB
#P OB98/GEN NMR

erre ene a

0 1
  C     -156.768       6.019     -78.801
  O     -157.302       6.117     -80.123
  P     -156.491       5.365     -81.287
  C     -158.669       4.734     -82.542
  O     -157.394       5.355     -82.615
  C     -159.681       5.594     -81.774
  O     -159.736       6.940     -82.316
  C     -161.104       5.034     -81.802
  O     -161.719       5.360     -80.554
  C     -161.768       5.847     -82.897
  O     -163.188       5.826     -82.767
  C     -161.106       7.217     -82.675
  N     -161.194       8.095     -83.840
  C     -161.494       9.437     -83.604
  O     -161.741       9.825     -82.459
  N     -161.550      10.302     -84.667
  C     -161.374       9.852     -85.869
  N     -161.445      10.758     -86.883
  C     -161.114       8.433     -86.174
  C     -161.034       7.621     -85.120
  O     -156.494       3.837     -80.812
  O     -155.099       5.876     -81.472
  H     -163.415       6.105     -81.854
  H     -155.590       3.474     -80.852
  H     -160.995       8.100     -87.194
  H     -160.844       6.564     -85.240
  H     -161.573       7.737     -81.829
  H     -161.501       5.447     -83.882
  H     -161.146       3.954     -81.966
  H     -159.337       5.673     -80.736
  H     -161.618      11.726     -86.634
  H     -158.581       3.763     -82.051
  H     -161.326      10.520     -87.857
  H     -159.021       4.529     -83.559
  P     -161.731       4.247     -79.401
  C     -162.024       6.017     -77.562
  O     -162.593       4.898     -78.213
  O     -160.242       4.374     -78.815
  O     -162.049       2.839     -79.772
  H     -160.095       3.689     -78.140
  H     -162.762       6.430     -76.871
  H     -161.753       6.786     -78.292
  H     -161.143       5.710     -76.993
  H     -157.395       6.558     -78.122
  H     -155.782       6.435     -78.783
  H     -156.727       4.991     -78.508

 3  4  5  6  7  8  9  10  11  12  13  21  23  27  28  29  30  32 0
 6-311+G(2d,p)
 ****
 34  35 0
 6-311+G(2d,p)
 ****
 1  2  14  15  16  17  18  19  20  22  24  25  26 0
 3-21G
 ****
 31  33  36  37  38  39  40  41  42  43  44  45  46 0
 3-21G
 ****


