%nproc=1
%NoSave
%Mem=1900MB
#P OB98/GEN NMR

erre ene a

0 1
  C      450.832    -574.797    -675.056
  O      449.930    -574.674    -673.968
  H      451.015    -573.801    -675.476
  H      450.389    -575.436    -675.839
  H      451.779    -575.227    -674.716
  P      449.482    -576.043    -673.258
  C      449.017    -574.416    -671.286
  O      448.642    -575.614    -671.949
  C      448.564    -574.448    -669.830
  O      447.124    -574.236    -669.722
  C      448.868    -575.761    -669.103
  O      450.198    -575.775    -668.618
  C      447.835    -575.726    -667.989
  O      448.267    -574.878    -666.899
  C      446.600    -575.108    -668.687
  N      443.148    -578.654    -667.659
  C      443.932    -577.902    -666.812
  N      443.812    -578.155    -665.493
  N      444.791    -576.991    -667.219
  C      444.856    -576.887    -668.573
  C      444.133    -577.570    -669.521
  C      443.143    -578.518    -669.057
  O      442.355    -579.169    -669.756
  N      444.452    -577.171    -670.803
  C      445.419    -576.276    -670.613
  N      445.690    -576.064    -669.276
  O      450.852    -576.602    -672.645
  O      448.834    -577.054    -674.146
  H      447.538    -574.784    -666.267
  H      450.859    -577.583    -672.734
  H      442.486    -579.304    -667.295
  H      445.920    -575.742    -671.407
  H      446.006    -574.496    -667.999
  H      447.669    -576.724    -667.564
  H      443.407    -579.012    -665.139
  H      448.659    -576.613    -669.766
  H      444.455    -577.659    -664.875
  H      449.044    -573.596    -669.306
  H      448.521    -573.564    -671.802
  H      450.098    -574.282    -671.338
  P      450.827    -577.190    -668.199
  C      452.896    -576.769    -669.724
  O      452.417    -577.120    -668.422
  O      450.337    -578.179    -669.375
  O      450.391    -577.677    -666.853
  H      449.606    -578.747    -669.034
  H      453.966    -576.763    -669.721
  H      452.535    -575.797    -669.987
  H      452.546    -577.485    -670.438

 6  7  8  9  10  11  12  13  14  15  26  29  33  34 0
 6-311+G(2d,p)
 ****
 36  38  39  40  41 0
 6-311+G(2d,p)
 ****
 1  2  3  4  5  16  17  18  19  20  21  22  23  24  25 0
 3-21G
 ****
 27  28  30  31  32  35  37  42  43  44  45  46  47 0
 3-21G
 ****
 48  49 0
 3-21G
 ****


