%nproc=1
%NoSave
%Mem=1900MB
#P OB98/GEN NMR

erre ene a

0 1
  C     -215.090    -192.920    -104.359
  O     -215.461    -192.831    -105.734
  P     -216.432    -191.633    -106.167
  C     -218.738    -192.859    -105.934
  O     -217.849    -191.868    -105.455
  C     -220.069    -192.829    -105.163
  O     -221.004    -193.727    -105.820
  C     -219.996    -193.307    -103.715
  O     -221.152    -192.837    -103.014
  C     -220.085    -194.810    -103.883
  O     -220.449    -195.453    -102.665
  C     -221.095    -194.952    -105.044
  N     -220.835    -196.119    -105.912
  C     -220.890    -197.393    -105.349
  O     -221.146    -197.607    -104.165
  N     -220.608    -198.438    -106.187
  C     -220.321    -198.342    -107.513
  O     -219.986    -199.305    -108.198
  C     -220.411    -196.997    -108.090
  C     -220.649    -195.965    -107.280
  O     -216.713    -191.917    -107.714
  O     -215.848    -190.277    -105.941
  H     -220.284    -196.416    -102.798
  H     -216.212    -191.289    -108.270
  H     -220.580    -199.360    -105.776
  H     -220.255    -196.889    -109.157
  H     -220.698    -194.955    -107.682
  H     -222.122    -195.049    -104.666
  H     -219.114    -195.206    -104.181
  H     -219.090    -193.009    -103.183
  H     -220.492    -191.817    -105.213
  H     -218.275    -193.846    -105.851
  H     -218.935    -192.692    -107.001
  P     -220.932    -191.771    -101.833
  C     -220.239    -193.518    -100.076
  O     -219.830    -192.409    -100.853
  O     -222.168    -191.265    -101.176
  O     -220.115    -190.597    -102.558
  H     -220.182    -189.781    -102.033
  H     -219.371    -194.155     -99.884
  H     -221.003    -194.111    -100.594
  H     -220.641    -193.163     -99.124
  H     -214.444    -193.761    -104.218
  H     -215.968    -193.040    -103.760
  H     -214.579    -192.026    -104.069

 3  4  5  6  7  8  9  10  11  12  13  23  28  29  30  31  32 0
 6-311+G(2d,p)
 ****
 33  34 0
 6-311+G(2d,p)
 ****
 1  2  14  15  16  17  18  19  20  21  22  24  25  26  27 0
 3-21G
 ****
 35  36  37  38  39  40  41  42  43  44  45 0
 3-21G
 ****


