%nproc=1
%NoSave
%Mem=1900MB
#P OB98/GEN NMR

erre ene a

0 1
  C       25.319     258.363      55.859
  O       24.067     258.945      55.459
  P       23.449     258.559      54.023
  C       21.920     256.471      54.425
  O       22.015     257.879      54.250
  C       21.120     255.849      53.279
  O       21.273     254.410      53.275
  C       19.620     256.090      53.353
  O       19.273     257.406      52.952
  C       19.092     255.011      52.417
  O       19.162     255.441      51.046
  C       20.080     253.853      52.676
  N       19.505     252.801      53.508
  C       18.346     252.197      53.029
  O       17.779     252.555      51.995
  N       17.836     251.189      53.801
  C       18.321     250.781      55.009
  O       17.804     249.881      55.666
  C       19.497     251.509      55.502
  C       20.022     252.475      54.745
  O       24.349     257.300      53.602
  O       23.513     259.626      52.982
  H       20.109     255.569      50.840
  H       24.395     257.244      52.630
  H       17.010     250.720      53.458
  H       19.897     251.230      56.471
  H       20.896     253.023      55.092
  H       20.403     253.415      51.723
  H       18.050     254.755      52.619
  H       19.261     255.890      54.369
  H       21.526     256.235      52.329
  H       21.412     256.258      55.375
  H       22.931     256.051      54.465
  P       18.493     258.309      54.030
  C       20.161     260.286      54.401
  O       18.997     259.808      53.764
  O       19.216     257.852      55.386
  O       17.015     258.095      54.007
  H       20.153     257.641      55.246
  H       20.899     259.489      54.542
  H       19.893     260.709      55.374
  H       20.601     261.070      53.783
  H       25.585     258.722      56.831
  H       26.080     258.636      55.158
  H       25.225     257.297      55.886

 3  4  5  6  7  8  9  10  11  12  13  23  28  29  30  31  32 0
 6-311+G(2d,p)
 ****
 33  34 0
 6-311+G(2d,p)
 ****
 1  2  14  15  16  17  18  19  20  21  22  24  25  26 0
 3-21G
 ****
 27  35  36  37  38  39  40  41  42  43  44  45 0
 3-21G
 ****


