%nproc=1
%NoSave
%Mem=1900MB
#P OB98/GEN NMR

erre ene a

0 1
  C      605.279     183.544    -229.603
  O      606.645     183.834    -229.826
  H      605.095     183.517    -228.526
  H      605.036     182.562    -230.022
  H      604.638     184.309    -230.048
  P      607.141     184.110    -231.320
  C      607.383     186.572    -230.579
  O      606.947     185.681    -231.592
  C      607.926     187.865    -231.192
  O      609.175     187.567    -231.882
  C      606.983     188.527    -232.222
  O      607.223     189.943    -232.164
  C      607.507     187.924    -233.513
  O      606.997     188.563    -234.655
  C      609.019     188.038    -233.238
  N      609.872     187.282    -234.157
  C      611.239     187.527    -234.120
  O      611.784     188.322    -233.366
  N      612.001     186.793    -235.004
  C      611.526     185.862    -235.880
  O      612.250     185.218    -236.624
  C      610.073     185.657    -235.877
  C      609.322     186.364    -235.031
  O      606.572     183.215    -232.367
  O      608.735     183.965    -231.222
  H      609.005     183.091    -231.572
  H      607.351     188.117    -235.454
  H      612.987     186.950    -234.978
  H      609.663     184.936    -236.578
  H      608.247     186.229    -234.997
  H      609.322     189.094    -233.258
  H      607.200     186.883    -233.593
  H      605.931     188.324    -232.023
  H      608.175     188.564    -230.377
  H      608.176     186.079    -229.998
  H      606.545     186.799    -229.907
  P      606.062     191.039    -232.299
  C      606.363     192.570    -230.238
  O      605.633     191.505    -230.811
  O      604.914     190.606    -233.151
  O      606.779     192.341    -232.920
  H      606.118     192.874    -233.394
  H      605.982     192.778    -229.260
  H      606.265     193.441    -230.852
  H      607.395     192.298    -230.168

 6  7  8  9  10  11  12  13  14  15  16  27  31  32  33  34  35 0
 6-311+G(2d,p)
 ****
 36  37 0
 6-311+G(2d,p)
 ****
 1  2  3  4  5  17  18  19  20  21  22  23  24  25 0
 3-21G
 ****
 26  28  29  30  38  39  40  41  42  43  44  45 0
 3-21G
 ****


