%nproc=1
%NoSave
%Mem=1900MB
#P OB98/GEN NMR

erre ene a

0 1
  C     -325.945     -30.139      31.781
  O     -327.335     -29.860      31.594
  P     -328.075     -29.139      32.826
  C     -330.053     -30.784      33.160
  O     -329.639     -29.499      32.724
  C     -331.527     -31.038      32.813
  O     -332.389     -30.661      33.929
  C     -332.011     -30.247      31.585
  O     -332.960     -31.082      30.903
  C     -332.703     -29.058      32.226
  O     -333.561     -28.358      31.338
  C     -333.382     -29.753      33.405
  N     -337.149     -26.598      34.772
  C     -336.969     -27.367      33.679
  N     -335.928     -28.180      33.382
  C     -335.023     -28.157      34.373
  C     -335.066     -27.422      35.546
  C     -336.198     -26.611      35.736
  N     -336.383     -25.805      36.836
  N     -333.926     -27.643      36.308
  C     -333.187     -28.446      35.561
  N     -333.836     -28.840      34.426
  O     -328.013     -27.586      32.447
  O     -327.451     -29.432      34.150
  H     -334.413     -28.831      31.261
  H     -327.284     -27.151      32.929
  H     -337.758     -27.322      32.930
  H     -332.173     -28.759      35.791
  H     -334.246     -30.346      33.089
  H     -331.946     -28.346      32.581
  H     -331.213     -29.979      30.891
  H     -331.660     -32.114      32.640
  H     -329.922     -30.878      34.241
  H     -337.227     -25.257      36.877
  H     -335.688     -25.778      37.573
  H     -329.406     -31.543      32.706
  P     -332.580     -31.665      29.462
  C     -334.640     -30.567      28.393
  O     -333.989     -31.787      28.693
  O     -332.301     -33.204      29.832
  O     -331.464     -30.992      28.746
  H     -333.022     -33.574      30.363
  H     -335.535     -30.783      27.808
  H     -333.979     -29.916      27.813
  H     -334.937     -30.067      29.323
  H     -325.556     -30.616      30.906
  H     -325.821     -30.786      32.624
  H     -325.418     -29.224      31.953

 3  4  5  6  7  8  9  10  11  12  22  25  29  30  31  32 0
 6-311+G(2d,p)
 ****
 33  36  37 0
 6-311+G(2d,p)
 ****
 1  2  13  14  15  16  17  18  19  20  21  23  24  26 0
 3-21G
 ****
 27  28  34  35  38  39  40  41  42  43  44  45  46  47  48 0
 3-21G
 ****


