%nproc=1
%NoSave
%Mem=1900MB
#P OB98/GEN NMR

erre ene a

0 1
  C      156.653    -341.150    1048.697
  O      156.210    -340.175    1049.641
  P      157.034    -338.792    1049.747
  C      155.158    -337.441    1048.610
  O      156.527    -337.823    1048.567
  C      155.028    -335.907    1048.429
  O      155.481    -335.202    1049.599
  C      155.848    -335.361    1047.293
  O      155.256    -335.677    1046.031
  C      155.902    -333.879    1047.633
  O      154.692    -333.215    1047.199
  C      155.948    -333.907    1049.178
  N      157.279    -333.627    1049.707
  C      157.647    -332.271    1049.721
  O      156.896    -331.415    1049.278
  N      158.885    -331.935    1050.249
  C      159.666    -332.865    1050.700
  N      160.869    -332.476    1051.189
  C      159.320    -334.302    1050.678
  C      158.114    -334.594    1050.174
  O      158.513    -338.922    1049.888
  O      156.378    -338.101    1051.050
  H      154.863    -332.258    1047.267
  H      157.067    -337.540    1051.472
  H      159.992    -335.043    1051.076
  H      157.781    -335.632    1050.126
  H      155.255    -333.168    1049.592
  H      156.739    -333.372    1047.148
  H      156.869    -335.775    1047.326
  H      153.970    -335.681    1048.278
  H      161.080    -331.491    1051.184
  H      154.718    -337.742    1049.547
  H      161.530    -333.119    1051.624
  H      154.627    -337.962    1047.813
  P      156.169    -336.460    1044.957
  C      154.668    -338.558    1044.650
  O      155.898    -338.019    1045.130
  O      157.657    -336.255    1045.536
  O      156.055    -335.940    1043.562
  H      158.284    -336.194    1044.790
  H      154.788    -339.653    1044.561
  H      154.413    -338.149    1043.673
  H      153.868    -338.339    1045.361
  H      156.013    -342.006    1048.742
  H      157.656    -341.442    1048.930
  H      156.622    -340.733    1047.712

 3  4  5  6  7  8  9  10  11  12  13  23  27  28  29  30  32 0
 6-311+G(2d,p)
 ****
 34  35 0
 6-311+G(2d,p)
 ****
 1  2  14  15  16  17  18  19  20  21  22  24  25  26 0
 3-21G
 ****
 31  33  36  37  38  39  40  41  42  43  44  45  46 0
 3-21G
 ****


