%nproc=1
%NoSave
%Mem=1900MB
#P OB98/GEN NMR

erre ene a

0 1
  C     -383.608     -61.823      99.749
  O     -383.034     -60.744      99.003
  P     -381.509     -60.814      98.502
  C     -381.418     -62.342      96.446
  O     -381.494     -60.994      96.901
  C     -381.947     -62.537      95.018
  O     -383.331     -62.118      94.912
  C     -381.166     -61.778      93.935
  O     -381.221     -62.605      92.764
  C     -381.999     -60.523      93.751
  O     -381.733     -59.861      92.521
  C     -383.419     -61.091      93.908
  N     -384.396     -60.062      94.258
  C     -384.971     -59.349      93.204
  O     -384.613     -59.554      92.042
  N     -385.904     -58.383      93.491
  C     -386.165     -58.089      94.731
  N     -387.081     -57.107      94.958
  C     -385.518     -58.759      95.875
  C     -384.658     -59.733      95.569
  O     -380.651     -61.787      99.244
  O     -380.970     -59.316      98.703
  H     -382.097     -58.953      92.577
  H     -380.011     -59.340      98.894
  H     -385.743     -58.460      96.891
  H     -384.138     -60.287      96.339
  H     -383.745     -61.573      92.972
  H     -381.787     -59.816      94.567
  H     -380.136     -61.563      94.212
  H     -381.927     -63.612      94.804
  H     -387.485     -56.654      94.144
  H     -382.001     -62.972      97.131
  H     -387.270     -56.726      95.872
  H     -380.376     -62.680      96.507
  P     -379.943     -63.409      92.232
  C     -379.369     -65.337      93.818
  O     -380.131     -64.934      92.693
  O     -378.624     -62.803      92.597
  O     -380.134     -63.483      90.637
  H     -379.274     -63.700      90.225
  H     -379.731     -66.309      94.165
  H     -379.462     -64.612      94.634
  H     -378.313     -65.430      93.541
  H     -384.624     -61.590      99.989
  H     -383.053     -61.967     100.652
  H     -383.576     -62.718      99.164

 3  4  5  6  7  8  9  10  11  12  13  23  27  28  29  30  32 0
 6-311+G(2d,p)
 ****
 34  35 0
 6-311+G(2d,p)
 ****
 1  2  14  15  16  17  18  19  20  21  22  24  25  26 0
 3-21G
 ****
 31  33  36  37  38  39  40  41  42  43  44  45  46 0
 3-21G
 ****


