%nproc=1
%NoSave
%Mem=1900MB
#P OB98/GEN NMR

erre ene a

0 1
  C      154.212    -268.529    -432.327
  O      155.502    -268.983    -431.962
  P      155.700    -269.835    -430.623
  C      157.657    -268.343    -429.885
  O      156.388    -268.882    -429.532
  C      158.046    -267.227    -428.918
  O      157.137    -266.113    -429.042
  C      158.001    -267.635    -427.450
  O      159.122    -268.422    -427.110
  C      157.941    -266.272    -426.770
  O      159.258    -265.701    -426.665
  C      157.082    -265.465    -427.751
  N      153.867    -262.788    -424.833
  C      155.212    -262.777    -424.937
  N      156.001    -263.550    -425.711
  C      155.259    -264.421    -426.413
  C      153.883    -264.577    -426.387
  C      153.169    -263.690    -425.565
  N      151.793    -263.651    -425.499
  N      153.499    -265.605    -427.225
  C      154.622    -266.064    -427.739
  N      155.703    -265.338    -427.327
  O      156.351    -271.165    -430.802
  O      154.210    -270.009    -430.060
  H      159.820    -266.350    -426.204
  H      153.989    -270.957    -430.015
  H      155.724    -262.042    -424.320
  H      154.700    -266.902    -428.420
  H      157.473    -264.449    -427.893
  H      157.531    -266.324    -425.756
  H      157.070    -268.177    -427.244
  H      159.051    -266.876    -429.189
  H      157.591    -267.947    -430.903
  H      151.381    -262.885    -424.991
  H      151.263    -264.094    -426.247
  H      158.406    -269.140    -429.866
  P      159.217    -269.087    -425.656
  C      161.428    -267.970    -425.003
  O      160.048    -268.075    -424.731
  O      159.675    -270.509    -425.625
  O      157.725    -268.949    -425.085
  H      157.530    -269.702    -424.495
  H      161.955    -268.833    -424.587
  H      161.812    -267.060    -424.537
  H      161.609    -267.916    -426.083
  H      154.273    -267.981    -433.244
  H      153.826    -267.894    -431.557
  H      153.562    -269.369    -432.456

 3  4  5  6  7  8  9  10  11  12  22  25  29  30  31  32 0
 6-311+G(2d,p)
 ****
 33  36  37 0
 6-311+G(2d,p)
 ****
 1  2  13  14  15  16  17  18  19  20  21  23  24  26 0
 3-21G
 ****
 27  28  34  35  38  39  40  41  42  43  44  45  46  47  48 0
 3-21G
 ****


