%nproc=1
%NoSave
%Mem=1900MB
#P OB98/GEN NMR

erre ene a

0 1
  C      586.633    -488.054     354.310
  O      585.978    -489.246     354.711
  H      586.628    -487.351     355.153
  H      586.102    -487.599     353.472
  H      587.672    -488.261     354.033
  P      585.951    -490.447     353.647
  C      583.493    -489.905     353.020
  O      584.412    -490.881     353.490
  C      582.084    -490.489     352.922
  O      582.051    -491.453     351.827
  C      581.611    -491.218     354.191
  O      580.200    -490.992     354.324
  C      581.827    -492.683     353.846
  O      581.028    -493.554     354.641
  C      581.464    -492.668     352.356
  N      580.215    -497.327     350.933
  C      579.476    -496.360     351.580
  N      578.203    -496.683     351.906
  N      579.931    -495.170     351.891
  C      581.220    -494.982     351.475
  C      582.052    -495.856     350.829
  C      581.530    -497.168     350.514
  O      582.155    -498.073     349.965
  N      583.292    -495.286     350.610
  C      583.188    -494.067     351.126
  N      581.952    -493.841     351.661
  O      586.605    -491.654     354.471
  O      586.676    -490.186     352.368
  H      581.247    -493.376     355.584
  H      587.565    -491.700     354.303
  H      579.818    -498.233     350.728
  H      583.981    -493.332     351.129
  H      580.383    -492.620     352.193
  H      582.884    -492.954     353.986
  H      577.758    -497.555     351.656
  H      582.126    -490.911     355.103
  H      577.625    -495.966     352.341
  H      581.387    -489.678     352.641
  H      583.817    -489.566     352.023
  H      583.497    -489.050     353.703
  P      579.708    -489.952     355.442
  C      579.444    -491.554     357.479
  O      578.801    -490.743     356.503
  O      578.635    -489.052     354.649
  O      580.802    -489.108     356.025
  H      578.590    -488.163     355.034
  H      578.706    -492.010     358.106
  H      580.093    -490.947     358.075
  H      580.016    -492.315     356.990

 6  7  8  9  10  11  12  13  14  15  26  29  33  34 0
 6-311+G(2d,p)
 ****
 36  38  39  40  41 0
 6-311+G(2d,p)
 ****
 1  2  3  4  5  16  17  18  19  20  21  22  23  24  25 0
 3-21G
 ****
 27  28  30  31  32  35  37  42  43  44  45  46  47 0
 3-21G
 ****
 48  49 0
 3-21G
 ****


