%nproc=1
%NoSave
%Mem=1900MB
#P OB98/GEN NMR

erre ene a

0 1
  C      166.180    -372.624     -72.856
  O      167.335    -372.850     -73.677
  P      167.315    -374.119     -74.656
  C      166.210    -373.213     -76.828
  O      167.414    -373.601     -76.176
  C      166.496    -372.501     -78.161
  O      167.407    -371.387     -77.965
  C      167.144    -373.414     -79.215
  O      166.730    -372.965     -80.512
  C      168.618    -373.129     -79.037
  O      169.373    -373.538     -80.185
  C      168.583    -371.626     -78.777
  N      172.177    -368.088     -78.849
  C      171.121    -368.307     -79.719
  N      170.990    -367.424     -80.732
  N      170.276    -369.297     -79.598
  C      170.519    -370.072     -78.510
  C      171.528    -369.967     -77.583
  C      172.473    -368.883     -77.746
  O      173.437    -368.644     -77.017
  N      171.451    -370.957     -76.637
  C      170.395    -371.668     -77.000
  N      169.775    -371.147     -78.100
  O      165.797    -374.638     -74.538
  O      168.285    -375.190     -74.277
  H      170.325    -373.418     -79.967
  H      165.778    -375.473     -74.030
  H      172.810    -367.319     -78.997
  H      170.041    -372.555     -76.492
  H      168.478    -371.040     -79.703
  H      169.005    -373.674     -78.170
  H      171.576    -366.614     -80.858
  H      166.900    -374.480     -79.110
  H      170.200    -367.537     -81.364
  H      165.557    -372.098     -78.546
  H      165.627    -372.549     -76.182
  H      165.587    -374.102     -76.979
  P      165.851    -373.977     -81.387
  C      163.725    -373.258     -80.082
  O      164.350    -373.416     -81.337
  O      165.786    -375.304     -80.486
  O      166.389    -374.256     -82.753
  H      165.634    -376.086     -81.042
  H      163.722    -372.194     -79.812
  H      164.235    -373.827     -79.292
  H      162.689    -373.615     -80.146
  H      166.333    -371.749     -72.259
  H      166.025    -373.469     -72.218
  H      165.321    -372.485     -73.479

 3  4  5  6  7  8  9  10  11  12  23  26  30  31 0
 6-311+G(2d,p)
 ****
 33  35  36  37  38 0
 6-311+G(2d,p)
 ****
 1  2  13  14  15  16  17  18  19  20  21  22  24  25 0
 3-21G
 ****
 27  28  29  32  34  39  40  41  42  43  44  45  46  47  48  49 0
 3-21G
 ****


