%nproc=1
%NoSave
%Mem=1900MB
#P OB98/GEN NMR

erre ene a

0 1
  C      -63.150      69.212    -150.326
  O      -62.411      69.338    -149.093
  P      -62.092      68.016    -148.233
  C      -59.999      66.797    -149.200
  O      -60.519      67.709    -148.242
  C      -58.487      66.992    -149.397
  O      -58.218      68.329    -149.920
  C      -57.653      66.843    -148.112
  O      -56.380      66.296    -148.497
  C      -57.485      68.285    -147.657
  O      -56.401      68.464    -146.756
  C      -57.296      68.975    -149.016
  N      -57.520      70.421    -148.991
  C      -56.482      71.233    -148.543
  O      -55.415      70.821    -148.108
  N      -56.727      72.586    -148.578
  C      -57.896      73.185    -148.966
  O      -58.055      74.399    -148.951
  C      -58.963      72.277    -149.401
  C      -58.734      70.964    -149.394
  O      -62.673      66.857    -149.178
  O      -62.742      67.954    -146.884
  H      -55.585      68.259    -147.249
  H      -63.200      66.231    -148.646
  H      -55.985      73.191    -148.274
  H      -59.903      72.711    -149.725
  H      -59.508      70.271    -149.721
  H      -56.292      68.771    -149.391
  H      -58.399      68.612    -147.152
  H      -58.130      66.205    -147.360
  H      -58.145      66.279    -150.161
  H      -60.503      66.954    -150.163
  H      -60.201      65.776    -148.868
  P      -56.217      64.692    -148.527
  C      -57.015      64.468    -151.016
  O      -55.993      64.272    -150.055
  O      -57.736      64.246    -148.240
  O      -55.248      64.150    -147.530
  H      -58.381      64.746    -148.769
  H      -57.513      65.438    -150.871
  H      -57.753      63.665    -150.944
  H      -56.574      64.451    -152.012
  H      -63.274      70.179    -150.768
  H      -64.111      68.786    -150.124
  H      -62.613      68.578    -151.000

 3  4  5  6  7  8  9  10  11  12  13  23  28  29  30  31  32 0
 6-311+G(2d,p)
 ****
 33  34 0
 6-311+G(2d,p)
 ****
 1  2  14  15  16  17  18  19  20  21  22  24  25  26 0
 3-21G
 ****
 27  35  36  37  38  39  40  41  42  43  44  45 0
 3-21G
 ****


