%nproc=1
%NoSave
%Mem=1900MB
#P OB98/GEN NMR

erre ene a

0 1
  C       26.615    -170.431     210.479
  O       27.167    -171.522     209.769
  H       26.151    -169.745     209.764
  H       27.389    -169.889     211.031
  H       25.843    -170.785     211.171
  P       28.124    -172.534     210.567
  C       29.923    -172.129     212.378
  O       29.277    -171.617     211.211
  C       30.759    -171.043     213.062
  O       29.922    -169.931     213.433
  C       31.413    -171.499     214.358
  O       32.448    -172.444     214.183
  C       31.708    -170.178     215.058
  O       32.948    -169.595     214.671
  C       30.538    -169.291     214.569
  N       29.575    -169.021     215.631
  C       29.916    -168.001     216.514
  O       30.969    -167.365     216.445
  N       29.023    -167.760     217.522
  C       27.871    -168.459     217.754
  O       27.132    -168.219     218.700
  C       27.576    -169.543     216.800
  C       28.426    -169.770     215.797
  O       28.646    -173.695     209.775
  O       27.250    -172.963     211.837
  H       33.006    -168.724     215.109
  H       27.614    -173.777     212.261
  H       29.249    -167.019     218.167
  H       26.673    -170.118     216.956
  H       28.231    -170.567     215.083
  H       30.920    -168.326     214.210
  H       31.738    -170.300     216.143
  H       30.646    -172.002     214.964
  H       31.507    -170.681     212.348
  H       30.582    -172.944     212.062
  H       29.171    -172.527     213.070
  P       33.132    -173.229     215.393
  C       33.916    -172.599     217.790
  O       33.646    -172.146     216.469
  O       34.034    -174.365     215.035
  O       31.840    -173.856     216.134
  H       32.103    -174.723     216.501
  H       34.247    -171.776     218.389
  H       34.679    -173.348     217.761
  H       33.025    -173.013     218.214

 6  7  8  9  10  11  12  13  14  15  16  26  31  32  33  34  35 0
 6-311+G(2d,p)
 ****
 36  37 0
 6-311+G(2d,p)
 ****
 1  2  3  4  5  17  18  19  20  21  22  23  24  25 0
 3-21G
 ****
 27  28  29  30  38  39  40  41  42  43  44  45 0
 3-21G
 ****


