%nproc=1
%NoSave
%Mem=1900MB
#P OB98/GEN NMR

erre ene a

0 1
  C      344.976     412.865    -377.052
  O      346.164     413.274    -377.700
  H      344.579     413.710    -376.486
  H      345.191     412.048    -376.359
  H      344.230     412.548    -377.785
  P      346.871     412.200    -378.667
  C      347.459     413.959    -380.479
  O      347.950     413.017    -379.538
  C      348.423     415.140    -380.620
  O      348.375     415.929    -379.384
  C      349.886     414.744    -380.857
  O      350.479     415.718    -381.720
  C      350.507     414.891    -379.472
  O      351.927     415.047    -379.522
  C      349.745     416.113    -378.967
  N      351.627     419.038    -375.320
  C      351.655     419.188    -376.695
  N      352.275     420.283    -377.176
  N      351.118     418.330    -377.531
  C      350.494     417.302    -376.906
  C      350.403     417.033    -375.556
  C      351.031     417.972    -374.653
  O      351.055     417.885    -373.424
  N      349.719     415.865    -375.332
  C      349.393     415.428    -376.539
  N      349.845     416.266    -377.525
  O      345.710     411.863    -379.721
  O      347.390     410.976    -377.991
  H      352.117     415.838    -380.070
  H      345.211     411.076    -379.431
  H      352.071     419.717    -374.723
  H      348.843     414.522    -376.747
  H      350.117     417.048    -379.407
  H      350.283     414.009    -378.862
  H      352.676     421.007    -376.599
  H      350.022     413.740    -381.281
  H      352.267     420.432    -378.178
  H      348.060     415.796    -381.417
  H      346.483     414.329    -380.146
  H      347.336     413.466    -381.450
  P      351.423     415.202    -382.909
  C      349.609     414.288    -384.536
  O      350.592     415.288    -384.276
  O      351.503     413.630    -382.635
  O      352.777     415.832    -382.935
  H      352.346     413.272    -382.981
  H      349.144     414.482    -385.480
  H      348.869     414.306    -383.764
  H      350.077     413.326    -384.559

 6  7  8  9  10  11  12  13  14  15  26  29  33  34 0
 6-311+G(2d,p)
 ****
 36  38  39  40  41 0
 6-311+G(2d,p)
 ****
 1  2  3  4  5  16  17  18  19  20  21  22  23  24  25 0
 3-21G
 ****
 27  28  30  31  32  35  37  42  43  44  45  46  47 0
 3-21G
 ****
 48  49 0
 3-21G
 ****


