%nproc=1
%NoSave
%Mem=1900MB
#P OB98/GEN NMR

erre ene a

0 1
  C      157.193     128.255      41.916
  O      156.645     127.835      40.683
  P      156.515     128.851      39.454
  C      158.100     129.993      37.796
  O      158.002     129.286      39.026
  C      158.967     131.244      37.942
  O      158.206     132.269      38.642
  C      160.273     131.034      38.722
  O      161.249     131.904      38.140
  C      159.914     131.528      40.116
  O      161.055     131.873      40.892
  C      159.008     132.701      39.762
  N      158.850     134.772      44.435
  C      159.883     134.470      43.620
  N      159.845     133.893      42.401
  C      158.578     133.633      42.038
  C      157.428     133.855      42.771
  C      157.593     134.472      44.027
  N      156.549     134.822      44.853
  N      156.316     133.397      42.085
  C      156.797     132.909      40.958
  N      158.149     133.088      40.857
  O      155.572     129.988      39.667
  O      156.042     127.931      38.235
  H      161.550     132.569      40.420
  H      155.097     128.093      38.043
  H      160.872     134.726      43.993
  H      156.215     132.420      40.189
  H      159.579     133.585      39.451
  H      159.363     130.747      40.653
  H      160.629     129.997      38.725
  H      159.180     131.631      36.939
  H      157.091     130.288      37.493
  H      156.771     135.377      45.665
  H      155.605     134.856      44.467
  H      158.512     129.336      37.024
  P      162.805     131.527      38.219
  C      164.256     129.535      37.528
  O      162.936     130.022      37.689
  O      163.467     131.805      39.529
  O      163.457     132.389      37.033
  H      164.424     132.449      37.169
  H      164.663     129.898      36.579
  H      164.233     128.442      37.511
  H      164.903     129.863      38.348
  H      157.193     127.435      42.604
  H      156.604     129.055      42.314
  H      158.197     128.593      41.764

 3  4  5  6  7  8  9  10  11  12  22  25  29  30  31  32 0
 6-311+G(2d,p)
 ****
 33  36  37 0
 6-311+G(2d,p)
 ****
 1  2  13  14  15  16  17  18  19  20  21  23  24  26 0
 3-21G
 ****
 27  28  34  35  38  39  40  41  42  43  44  45  46  47  48 0
 3-21G
 ****


