%nproc=1
%NoSave
%Mem=1900MB
#P OB98/GEN NMR

erre ene a

0 1
  C       82.022     143.443    -110.249
  O       81.770     142.170    -110.810
  P       81.609     140.888    -109.863
  C       79.202     140.160    -110.389
  O       80.068     140.768    -109.437
  C       79.086     138.661    -110.125
  O       78.598     138.410    -108.788
  C       78.108     137.944    -111.042
  O       78.618     137.801    -112.355
  C       77.904     136.639    -110.285
  O       78.984     135.728    -110.534
  C       77.936     137.122    -108.820
  N       76.609     137.192    -108.228
  C       76.011     135.967    -107.913
  O       76.566     134.909    -108.208
  N       74.794     135.978    -107.278
  C       74.174     137.100    -107.091
  N       73.002     137.054    -106.404
  C       74.700     138.400    -107.557
  C       75.920     138.375    -108.092
  O       82.580     140.806    -108.733
  O       81.796     139.646    -110.859
  H       82.450     139.031    -110.475
  H       78.739     134.883    -110.108
  H       74.113     139.298    -107.438
  H       76.395     139.284    -108.441
  H       78.557     136.453    -108.214
  H       76.978     136.129    -110.574
  H       77.162     138.497    -111.077
  H       80.089     138.222    -110.213
  H       72.682     136.148    -106.084
  H       79.609     140.328    -111.390
  H       72.615     137.866    -105.930
  H       78.217     140.637    -110.335
  P       77.685     137.043    -113.417
  C       77.746     139.175    -114.883
  O       76.955     138.160    -114.300
  O       76.508     136.443    -112.511
  O       78.373     135.967    -114.193
  H       76.238     135.573    -112.857
  H       77.185     139.627    -115.705
  H       78.686     138.776    -115.274
  H       77.959     139.946    -114.137
  H       82.098     144.169    -111.031
  H       82.939     143.415    -109.698
  H       81.220     143.709    -109.593

 3  4  5  6  7  8  9  10  11  12  13  24  27  28  29  30  32 0
 6-311+G(2d,p)
 ****
 34  35 0
 6-311+G(2d,p)
 ****
 1  2  14  15  16  17  18  19  20  21  22  23  25  26 0
 3-21G
 ****
 31  33  36  37  38  39  40  41  42  43  44  45  46 0
 3-21G
 ****


