%nproc=1
%NoSave
%Mem=1900MB
#P OB98/GEN NMR

erre ene a

0 1
  C     -146.788    -177.485    -101.964
  O     -147.957    -177.990    -101.352
  H     -145.977    -177.487    -101.230
  H     -146.954    -176.458    -102.301
  H     -146.499    -178.113    -102.811
  P     -149.260    -178.111    -102.279
  C     -150.610    -176.107    -101.316
  O     -150.479    -177.520    -101.417
  C     -151.297    -175.745    -100.002
  O     -152.648    -176.256    -100.009
  C     -150.637    -176.346     -98.765
  O     -149.490    -175.616     -98.368
  C     -151.779    -176.279     -97.760
  O     -151.870    -174.984     -97.152
  C     -153.011    -176.532     -98.638
  N     -156.911    -179.397     -97.038
  C     -156.735    -178.059     -97.091
  N     -155.668    -177.371     -97.552
  C     -154.722    -178.214     -97.998
  C     -154.756    -179.597     -98.001
  C     -155.920    -180.198     -97.494
  N     -156.084    -181.559     -97.406
  N     -153.574    -180.110     -98.496
  C     -152.843    -179.055     -98.796
  N     -153.499    -177.890     -98.516
  O     -149.540    -179.688    -102.299
  O     -149.120    -177.549    -103.653
  H     -152.507    -175.066     -96.416
  H     -149.129    -180.082    -103.090
  H     -157.559    -177.461     -96.710
  H     -151.839    -179.085     -99.205
  H     -153.844    -175.865     -98.384
  H     -151.644    -177.006     -96.958
  H     -150.385    -177.399     -98.944
  H     -151.346    -174.652     -99.924
  H     -151.216    -175.739    -102.151
  H     -149.615    -175.654    -101.369
  H     -156.936    -181.921     -97.009
  H     -155.309    -182.164     -97.644
  P     -148.149    -176.423     -98.035
  C     -147.716    -175.468     -95.656
  O     -147.291    -175.537     -97.008
  O     -147.318    -176.332     -99.399
  O     -148.361    -177.835     -97.603
  H     -147.405    -177.160     -99.907
  H     -147.046    -174.844     -95.103
  H     -147.720    -176.451     -95.233
  H     -148.703    -175.057     -95.613

 6  7  8  9  10  11  12  13  14  15  25  28  32  33  34  35 0
 6-311+G(2d,p)
 ****
 36  37  40 0
 6-311+G(2d,p)
 ****
 1  2  3  4  5  16  17  18  19  20  21  22  23  24 0
 3-21G
 ****
 26  27  29  30  31  38  39 41  42  43  44  45  46  47  48 0
 3-21G
 ****


