%nproc=1
%NoSave
%Mem=1900MB
#P OB98/GEN NMR

erre ene a

0 1
  C      436.509    -122.590     -34.525
  O      437.209    -121.663     -33.685
  P      438.809    -121.537     -33.671
  C      439.036    -119.971     -35.711
  O      439.236    -120.129     -34.309
  C      440.183    -119.193     -36.361
  O      440.272    -119.496     -37.768
  C      440.055    -117.678     -36.281
  O      440.371    -117.205     -34.983
  C      441.025    -117.243     -37.378
  O      442.378    -117.233     -36.893
  C      440.827    -118.346     -38.436
  N      439.990    -117.915     -39.543
  C      440.500    -116.900     -40.360
  O      441.584    -116.374     -40.096
  N      439.760    -116.488     -41.444
  C      438.584    -116.990     -41.648
  N      437.900    -116.550     -42.742
  C      437.969    -117.997     -40.766
  C      438.720    -118.410     -39.743
  O      439.516    -122.713     -34.264
  O      439.199    -121.375     -32.122
  H      442.354    -116.810     -36.016
  H      440.078    -121.768     -31.973
  H      436.972    -118.367     -40.954
  H      438.348    -119.154     -39.047
  H      441.797    -118.670     -38.836
  H      440.813    -116.238     -37.755
  H      439.036    -117.380     -36.559
  H      441.120    -119.524     -35.889
  H      438.354    -115.865     -43.330
  H      438.099    -119.426     -35.862
  H      436.977    -116.879     -42.992
  H      438.943    -120.964     -36.164
  P      439.357    -116.227     -34.220
  C      437.711    -117.634     -32.840
  O      438.943    -116.934     -32.845
  O      438.216    -115.713     -35.044
  O      440.291    -115.022     -33.726
  H      439.767    -114.198     -33.714
  H      437.729    -118.376     -32.039
  H      437.542    -118.142     -33.796
  H      436.894    -116.928     -32.656
  H      435.456    -122.493     -34.363
  H      436.816    -123.587     -34.289
  H      436.732    -122.381     -35.550

 3  4  5  6  7  8  9  10  11  12  13  23  27  28  29  30  32 0
 6-311+G(2d,p)
 ****
 34  35 0
 6-311+G(2d,p)
 ****
 1  2  14  15  16  17  18  19  20  21  22  24  25  26 0
 3-21G
 ****
 31  33  36  37  38  39  40  41  42  43  44  45  46 0
 3-21G
 ****


