%nproc=1
%NoSave
%Mem=1900MB
#P OB98/GEN NMR

erre ene a

0 1
  C     -339.218     663.071     422.114
  O     -337.912     663.613     422.144
  H     -339.412     662.686     421.109
  H     -339.955     663.848     422.339
  H     -339.314     662.250     422.826
  P     -337.312     664.097     423.550
  C     -336.494     661.859     424.536
  O     -337.486     662.878     424.575
  C     -335.639     661.914     425.798
  O     -334.894     663.157     425.837
  C     -336.447     661.885     427.092
  O     -336.927     660.586     427.373
  C     -335.426     662.423     428.080
  O     -334.527     661.392     428.512
  C     -334.674     663.476     427.228
  N     -335.119     664.841     427.530
  C     -334.460     665.485     428.572
  O     -333.547     664.977     429.220
  N     -334.930     666.730     428.897
  C     -336.058     667.309     428.384
  O     -336.581     668.305     428.874
  C     -336.677     666.614     427.247
  C     -336.191     665.421     426.885
  O     -337.800     665.419     424.041
  O     -335.730     664.118     423.291
  H     -335.439     665.040     423.149
  H     -335.084     660.605     428.677
  H     -334.487     667.187     429.678
  H     -337.526     667.078     426.767
  H     -336.656     664.868     426.072
  H     -333.594     663.416     427.405
  H     -335.906     662.840     428.964
  H     -337.282     662.595     427.020
  H     -334.917     661.086     425.767
  H     -335.859     662.022     423.656
  H     -336.988     660.886     424.442
  P     -338.031     660.362     428.516
  C     -340.016     660.377     426.874
  O     -339.417     661.003     428.002
  O     -337.622     660.778     429.888
  O     -338.333     658.789     428.465
  H     -338.270     658.429     429.369
  H     -340.924     660.885     426.625
  H     -340.231     659.355     427.106
  H     -339.344     660.421     426.043

 6  7  8  9  10  11  12  13  14  15  16  27  31  32  33  34  35 0
 6-311+G(2d,p)
 ****
 36  37 0
 6-311+G(2d,p)
 ****
 1  2  3  4  5  17  18  19  20  21  22  23  24  25 0
 3-21G
 ****
 26  28  29  30  38  39  40  41  42  43  44  45 0
 3-21G
 ****


