%nproc=1
%NoSave
%Mem=1900MB
#P OB98/GEN NMR

erre ene a

0 1
  C      -51.945    -434.893    -183.501
  O      -51.866    -436.177    -184.100
  P      -52.186    -436.398    -185.659
  C      -53.894    -437.991    -186.778
  O      -53.624    -437.108    -185.701
  C      -55.178    -438.777    -186.514
  O      -55.002    -439.557    -185.301
  C      -56.426    -437.902    -186.327
  O      -57.533    -438.620    -186.879
  C      -56.554    -437.811    -184.815
  O      -57.870    -437.484    -184.396
  C      -56.076    -439.210    -184.400
  N      -55.638    -439.261    -183.011
  C      -56.538    -439.749    -182.061
  O      -57.672    -440.099    -182.390
  N      -56.134    -439.829    -180.756
  C      -54.963    -439.385    -180.409
  N      -54.588    -439.543    -179.108
  C      -54.027    -438.765    -181.360
  C      -54.411    -438.757    -182.633
  O      -51.119    -437.104    -186.425
  O      -52.524    -434.931    -186.204
  H      -57.882    -437.453    -183.423
  H      -51.719    -434.423    -186.465
  H      -53.075    -438.382    -181.019
  H      -53.783    -438.343    -183.403
  H      -56.873    -439.941    -184.564
  H      -55.876    -437.034    -184.438
  H      -56.340    -436.931    -186.820
  H      -55.325    -439.484    -187.340
  H      -55.185    -440.127    -178.531
  H      -53.061    -438.693    -186.864
  H      -53.608    -439.528    -178.842
  H      -53.963    -437.424    -187.711
  P      -58.460    -437.876    -187.961
  C      -59.949    -435.749    -187.994
  O      -58.947    -436.488    -187.328
  O      -59.802    -438.760    -187.903
  O      -57.943    -437.835    -189.362
  H      -60.267    -438.681    -188.758
  H      -60.158    -434.845    -187.419
  H      -60.873    -436.333    -188.074
  H      -59.607    -435.458    -188.993
  H      -51.695    -434.967    -182.463
  H      -52.940    -434.513    -183.601
  H      -51.260    -434.230    -183.987

 3  4  5  6  7  8  9  10  11  12  13  23  27  28  29  30  32 0
 6-311+G(2d,p)
 ****
 34  35 0
 6-311+G(2d,p)
 ****
 1  2  14  15  16  17  18  19  20  21  22  24  25  26 0
 3-21G
 ****
 31  33  36  37  38  39  40  41  42  43  44  45  46 0
 3-21G
 ****


