%nproc=1
%NoSave
%Mem=1900MB
#P OB98/GEN NMR

erre ene a

0 1
  C     -980.982     383.513    -382.792
  O     -981.707     384.681    -382.469
  H     -980.945     382.874    -381.906
  H     -979.959     383.762    -383.086
  H     -981.473     382.962    -383.598
  P     -981.906     385.792    -383.607
  C     -984.008     386.646    -382.348
  O     -982.723     386.967    -382.873
  C     -984.387     387.632    -381.244
  O     -983.418     387.623    -380.178
  C     -984.463     389.094    -381.687
  O     -985.616     389.386    -382.474
  C     -984.506     389.773    -380.331
  O     -985.820     389.621    -379.745
  C     -983.447     388.940    -379.558
  N     -982.123     389.559    -379.576
  C     -981.794     390.365    -378.485
  O     -982.584     390.538    -377.564
  N     -980.551     390.977    -378.465
  C     -979.744     390.824    -379.467
  N     -978.543     391.463    -379.406
  C     -980.064     390.001    -380.657
  C     -981.255     389.401    -380.644
  O     -982.492     385.320    -384.903
  O     -980.461     386.467    -383.770
  H     -985.781     390.046    -378.868
  H     -980.526     387.167    -384.475
  H     -979.367     389.924    -381.485
  H     -981.566     388.784    -381.478
  H     -983.760     388.791    -378.506
  H     -984.289     390.832    -380.376
  H     -983.545     389.392    -382.204
  H     -985.345     387.289    -380.814
  H     -978.346     392.022    -378.590
  H     -983.971     385.619    -381.967
  H     -977.888     391.473    -380.182
  H     -984.762     386.700    -383.135
  P     -985.351     390.137    -383.879
  C     -987.938     390.404    -384.137
  O     -986.659     391.019    -384.157
  O     -985.429     388.950    -384.933
  O     -984.060     390.910    -383.949
  H     -984.529     388.652    -385.181
  H     -988.690     391.138    -384.342
  H     -988.112     389.974    -383.173
  H     -987.976     389.637    -384.882

 6  7  8  9  10  11  12  13  14  15  16  26  30  31  32  33  35 0
 6-311+G(2d,p)
 ****
 37  38 0
 6-311+G(2d,p)
 ****
 1  2  3  4  5  17  18  19  20  21  22  23  24  25 0
 3-21G
 ****
 27  28  29  34  36  39  40  41  42  43  44  45  46 0
 3-21G
 ****


