%nproc=1
%NoSave
%Mem=1900MB
#P OB98/GEN NMR

erre ene a

0 1
  C      944.827    -891.680     717.539
  O      946.214    -891.930     717.478
  P      947.128    -891.310     716.300
  C      948.990    -892.780     717.288
  O      948.328    -892.350     716.104
  C      949.596    -894.170     717.070
  O      948.512    -895.130     716.984
  C      950.396    -894.360     715.784
  O      951.769    -893.930     715.865
  C      950.350    -895.880     715.630
  O      951.319    -896.480     716.521
  C      948.929    -896.200     716.069
  N      947.582    -898.920     711.959
  C      948.534    -899.120     712.901
  N      948.857    -898.330     713.964
  C      947.999    -897.280     714.015
  C      946.985    -896.960     713.150
  C      946.763    -897.830     712.063
  N      945.763    -897.680     711.135
  N      946.358    -895.800     713.542
  C      946.994    -895.410     714.639
  N      947.993    -896.300     714.968
  O      947.521    -889.880     716.524
  O      946.243    -891.520     714.977
  H      952.182    -896.130     716.274
  H      946.574    -890.930     714.261
  H      949.150    -900.000     712.771
  H      946.760    -894.540     715.212
  H      948.878    -897.140     716.645
  H      950.607    -896.200     714.608
  H      949.893    -893.890     714.915
  H      950.203    -894.430     717.936
  H      948.251    -892.840     718.090
  H      945.616    -898.400     710.477
  H      945.070    -896.940     711.314
  H      949.761    -892.040     717.569
  P      952.202    -892.680     714.945
  C      954.470    -893.080     716.188
  O      953.791    -892.640     715.029
  O      951.505    -891.390     715.274
  O      951.902    -893.220     713.452
  H      952.494    -893.940     713.163
  H      955.543    -893.120     715.989
  H      954.135    -894.110     716.466
  H      954.293    -892.390     717.017
  H      944.412    -892.179     718.389
  H      944.359    -892.044     716.648
  H      944.658    -890.627     717.626

 3  4  5  6  7  8  9  10  11  12  22  25  29  30  31  32 0
 6-311+G(2d,p)
 ****
 33  36  37 0
 6-311+G(2d,p)
 ****
 1  2  13  14  15  16  17  18  19  20  21  23  24  26 0
 3-21G
 ****
 27  28  34  35  38  39  40  41  42  43  44  45  46  47  48 0
 3-21G
 ****


