%nproc=1
%NoSave
%Mem=1900MB
#P OB98/GEN NMR

erre ene a

0 1
  C      572.622     277.924     432.892
  O      571.592     277.027     432.527
  H      572.531     278.149     433.959
  H      572.532     278.859     432.327
  H      573.602     277.471     432.714
  P      571.478     276.571     430.993
  C      570.317     278.743     430.211
  O      571.476     277.920     430.126
  C      570.245     279.684     429.007
  O      568.970     280.347     428.962
  C      571.304     280.791     429.013
  O      572.546     280.295     428.525
  C      570.664     281.788     428.063
  O      570.828     281.342     426.701
  C      569.176     281.706     428.468
  N      567.058     286.219     429.421
  C      567.439     285.651     428.223
  N      567.258     286.415     427.116
  N      567.962     284.466     428.109
  C      568.154     283.842     429.300
  C      567.835     284.310     430.562
  C      567.193     285.600     430.663
  O      566.820     286.130     431.707
  N      568.264     283.443     431.531
  C      568.791     282.435     430.870
  N      568.759     282.632     429.506
  O      570.353     275.636     430.662
  O      572.905     275.930     430.668
  H      571.783     281.226     426.550
  H      572.909     274.966     430.827
  H      566.668     287.140     429.451
  H      569.198     281.540     431.312
  H      568.510     281.844     427.621
  H      571.109     282.785     428.136
  H      566.997     287.390     427.154
  H      571.411     281.251     429.998
  H      567.586     286.040     426.233
  H      570.325     279.068     428.097
  H      570.391     279.318     431.139
  H      569.413     278.128     430.252
  P      573.933     280.637     429.263
  C      573.825     283.163     428.694
  O      573.808     282.172     429.710
  O      575.155     280.302     428.474
  O      573.827     279.876     430.663
  H      574.116     278.919     430.610
  H      573.734     284.132     429.139
  H      573.007     283.000     428.023
  H      574.747     283.104     428.154

 6  7  8  9  10  11  12  13  14  15  26  29  33  34 0
 6-311+G(2d,p)
 ****
 36  38  39  40  41 0
 6-311+G(2d,p)
 ****
 1  2  3  4  5  16  17  18  19  20  21  22  23  24  25 0
 3-21G
 ****
 27  28  30  31  32  35  37  42  43  44  45  46  47 0
 3-21G
 ****
 48  49 0
 3-21G
 ****


