%nproc=1
%NoSave
%Mem=1900MB
#P OB98/GEN NMR

erre ene a

0 1
  C       98.673    -529.978     929.957
  O       99.179    -528.699     930.284
  H       98.164    -529.934     928.991
  H       99.510    -530.676     929.878
  H       97.985    -530.334     930.727
  P       98.119    -527.584     930.743
  C       98.645    -527.987     933.254
  O       97.658    -527.980     932.230
  C       98.092    -528.642     934.522
  O       97.090    -527.752     935.093
  C       97.436    -530.008     934.296
  O       97.767    -530.857     935.405
  C       95.952    -529.698     934.343
  O       95.160    -530.818     934.725
  C       95.919    -528.551     935.345
  N       90.937    -528.478     936.381
  C       91.945    -529.232     936.868
  N       93.261    -529.148     936.573
  C       93.500    -528.127     935.735
  C       92.570    -527.266     935.159
  C       91.226    -527.495     935.502
  N       90.178    -526.783     934.965
  N       93.204    -526.385     934.306
  C       94.473    -526.715     934.343
  N       94.703    -527.765     935.192
  O       96.836    -527.939     929.843
  O       98.551    -526.168     930.560
  H       95.615    -531.289     935.455
  H       96.901    -527.482     928.986
  H       91.670    -530.007     937.575
  H       95.263    -526.261     933.759
  H       95.953    -528.899     936.390
  H       95.618    -529.366     933.352
  H       97.735    -530.497     933.361
  H       98.908    -528.715     935.252
  H       98.930    -526.959     933.476
  H       89.244    -527.082     935.186
  H       90.375    -526.115     934.225
  H       99.525    -528.534     932.899
  P       97.711    -532.438     935.170
  C      100.202    -532.526     935.933
  O       99.208    -532.990     935.023
  O       97.123    -532.567     933.682
  O       96.860    -533.174     936.156
  H       96.584    -533.374     933.601
  H      101.140    -532.986     935.702
  H       99.917    -532.780     936.933
  H      100.296    -531.464     935.848

 6  7  8  9  10  11  12  13  14  15  25  28  32  33  34  35 0
 6-311+G(2d,p)
 ****
 36  39  40 0
 6-311+G(2d,p)
 ****
 1  2  3  4  5  16  17  18  19  20  21  22  23  24 0
 3-21G
 ****
 26  27  29  30  31  37  38  41  42  43  44  45  46  47 0
 3-21G
 ****
 48 0
 3-21G
 ****


