%nproc=1
%NoSave
%Mem=1900MB
#P OB98/GEN NMR

erre ene a

0 1
  C     -301.029    -246.198     -92.542
  O     -301.229    -244.860     -92.082
  P     -301.568    -243.750     -93.198
  C     -303.779    -242.656     -92.370
  O     -303.165    -243.586     -93.244
  C     -304.525    -243.379     -91.249
  O     -303.621    -244.089     -90.392
  C     -305.306    -242.454     -90.327
  O     -306.546    -242.061     -90.894
  C     -305.540    -243.361     -89.127
  O     -306.670    -244.216     -89.366
  C     -304.237    -244.187     -89.084
  N     -303.276    -243.733     -84.125
  C     -304.374    -244.272     -84.768
  N     -305.340    -244.792     -83.976
  N     -304.511    -244.307     -86.070
  C     -303.454    -243.776     -86.732
  C     -302.311    -243.215     -86.209
  C     -302.187    -243.159     -84.769
  O     -301.254    -242.660     -84.149
  N     -301.464    -242.799     -87.200
  C     -302.073    -243.137     -88.318
  N     -303.292    -243.723     -88.091
  O     -301.232    -244.517     -94.566
  O     -300.784    -242.493     -93.057
  H     -306.871    -244.666     -88.518
  H     -300.986    -243.874     -95.260
  H     -303.227    -243.730     -83.125
  H     -301.671    -242.986     -89.316
  H     -304.439    -245.247     -88.898
  H     -305.745    -242.801     -88.201
  H     -305.273    -244.864     -82.976
  H     -304.703    -241.587     -90.029
  H     -306.136    -245.225     -84.438
  H     -305.214    -244.107     -91.711
  H     -304.472    -242.025     -92.927
  H     -303.004    -241.991     -91.957
  P     -306.533    -240.780     -91.866
  C     -307.170    -242.067     -94.035
  O     -306.177    -241.350     -93.324
  O     -305.211    -239.999     -91.422
  O     -307.751    -239.922     -91.781
  H     -305.314    -239.045     -91.587
  H     -308.141    -241.584     -93.956
  H     -307.231    -243.089     -93.643
  H     -306.883    -242.109     -95.088
  H     -300.813    -246.833     -91.709
  H     -300.209    -246.220     -93.230
  H     -301.915    -246.543     -93.032

 3  4  5  6  7  8  9  10  11  12  23  26  30  31  33  0
 6-311+G(2d,p)
 ****
 35  36  37  38 0
 6-311+G(2d,p)
 ****
 1  2  13  14  15  16  17  18  19  20  21  22  24  25  27  28  29 0
 3-21G
 ****
 32  34  39  40  41  42  43  44  45  46  47  48  49 0
 3-21G
 ****


