%nproc=1
%NoSave
%Mem=1900MB
#P OB98/GEN NMR

erre ene a

0 1
  C     -333.595    -417.198    -257.750
  O     -332.833    -416.461    -256.787
  P     -333.509    -415.488    -255.701
  C     -333.997    -417.008    -253.672
  O     -334.534    -416.331    -254.805
  C     -334.880    -416.823    -252.433
  O     -336.189    -417.380    -252.650
  C     -334.357    -417.502    -251.172
  O     -333.284    -416.771    -250.605
  C     -335.621    -417.542    -250.313
  O     -335.836    -416.288    -249.647
  C     -336.714    -417.795    -251.375
  N     -337.149    -419.187    -251.404
  C     -338.408    -419.457    -250.845
  O     -339.060    -418.560    -250.312
  N     -338.880    -420.750    -250.886
  C     -338.132    -421.698    -251.368
  N     -338.653    -422.955    -251.387
  C     -336.768    -421.469    -251.882
  C     -336.347    -420.203    -251.869
  O     -334.087    -414.239    -256.282
  O     -332.326    -415.128    -254.675
  H     -335.792    -415.592    -250.333
  H     -332.476    -414.235    -254.315
  H     -336.167    -422.288    -252.251
  H     -335.362    -419.942    -252.241
  H     -337.589    -417.160    -251.184
  H     -335.576    -418.315    -249.540
  H     -334.039    -418.526    -251.400
  H     -335.003    -415.742    -252.264
  H     -339.594    -423.079    -251.038
  H     -332.998    -416.601    -253.473
  H     -338.156    -423.759    -251.744
  H     -333.897    -418.075    -253.911
  P     -331.837    -417.452    -250.468
  C     -330.833    -416.159    -252.449
  O     -331.154    -417.434    -251.915
  O     -331.816    -418.773    -249.768
  O     -330.983    -416.364    -249.661
  H     -330.317    -416.828    -249.115
  H     -330.047    -416.279    -253.195
  H     -330.481    -415.486    -251.662
  H     -331.720    -415.739    -252.923
  H     -332.934    -417.773    -258.363
  H     -334.149    -416.518    -258.363
  H     -334.272    -417.853    -257.243

 3  4  5  6  7  8  9  10  11  12  13  23  27  28  29  30  32 0
 6-311+G(2d,p)
 ****
 34  35 0
 6-311+G(2d,p)
 ****
 1  2  14  15  16  17  18  19  20  21  22  24  25  26 0
 3-21G
 ****
 31  33  36  37  38  39  40  41  42  43  44  45  46 0
 3-21G
 ****


