%nproc=1
%NoSave
%Mem=1900MB
#P OB98/GEN NMR

erre ene a

0 1
  C      362.988     -14.498    -659.595
  O      362.107     -13.942    -658.624
  P      360.698     -13.376    -659.152
  C      360.838     -11.831    -657.055
  O      360.508     -11.945    -658.442
  C      360.390     -10.471    -656.519
  O      361.063      -9.417    -657.233
  C      358.907     -10.194    -656.682
  O      358.162     -10.886    -655.698
  C      358.859      -8.683    -656.527
  O      358.774      -8.299    -655.152
  C      360.220      -8.245    -657.135
  N      360.078      -7.591    -658.419
  C      360.580      -6.275    -658.499
  O      361.085      -5.743    -657.500
  N      360.448      -5.588    -659.692
  C      359.881      -6.164    -660.698
  N      359.786      -5.445    -661.854
  C      359.319      -7.538    -660.661
  C      359.446      -8.179    -659.501
  O      359.625     -14.308    -658.414
  O      360.533     -13.388    -660.643
  H      359.472      -8.799    -654.694
  H      358.806     -14.360    -658.928
  H      358.844      -7.967    -661.533
  H      359.065      -9.182    -659.369
  H      360.736      -7.545    -656.455
  H      357.996      -8.245    -657.043
  H      358.568     -10.486    -657.683
  H      360.690     -10.416    -655.455
  H      360.161      -4.498    -661.850
  H      361.917     -11.936    -656.933
  H      359.370      -5.803    -662.699
  H      360.357     -12.650    -656.510
  P      357.114     -11.993    -656.197
  C      356.381     -12.540    -653.800
  O      355.993     -12.028    -655.056
  O      357.901     -13.366    -655.925
  O      356.625     -11.884    -657.596
  H      357.399     -14.111    -656.289
  H      355.581     -12.366    -653.071
  H      357.290     -12.040    -653.450
  H      356.554     -13.620    -653.870
  H      363.882     -14.835    -659.114
  H      363.233     -13.753    -660.322
  H      362.510     -15.325    -660.078

 3  4  5  6  7  8  9  10  11  12  13  21  23  27  28  29  30  32 0
 6-311+G(2d,p)
 ****
 34  35 0
 6-311+G(2d,p)
 ****
 1  2  14  15  16  17  18  19  20  22  24  25  26 0
 3-21G
 ****
 31  33  36  37  38  39  40  41  42  43  44  45  46 0
 3-21G
 ****


