%nproc=1
%NoSave
%Mem=1900MB
#P OB98/GEN NMR

erre ene a

0 1
  C       81.334     533.709    -873.849
  O       80.034     533.237    -873.543
  H       82.026     533.349    -873.082
  H       81.362     534.800    -873.857
  H       81.658     533.323    -874.821
  P       78.809     533.756    -874.438
  C       77.629     536.045    -874.689
  O       78.455     535.217    -873.877
  C       77.527     537.439    -874.069
  O       78.832     538.059    -874.018
  C       76.652     538.390    -874.884
  O       75.277     538.101    -874.681
  C       77.123     539.734    -874.353
  O       76.516     540.042    -873.096
  C       78.643     539.481    -874.192
  N       79.420     539.973    -875.331
  C       80.360     540.969    -875.042
  O       80.500     541.388    -873.889
  N       81.102     541.489    -876.079
  C       80.931     541.039    -877.284
  N       81.692     541.599    -878.265
  C       79.965     539.981    -877.624
  C       79.247     539.500    -876.608
  O       77.630     532.844    -874.563
  O       79.488     534.063    -875.862
  H       76.963     540.844    -872.769
  H       79.467     533.274    -876.427
  H       79.859     539.631    -878.649
  H       78.517     538.716    -876.774
  H       79.022     539.968    -873.289
  H       76.884     540.533    -875.052
  H       76.911     538.328    -875.948
  H       77.152     537.338    -873.045
  H       82.342     542.330    -877.984
  H       76.643     535.577    -874.726
  H       81.717     541.267    -879.220
  H       78.029     536.111    -875.709
  P       74.166     538.761    -875.628
  C       73.714     541.194    -876.373
  O       74.275     540.351    -875.380
  O       72.797     538.188    -875.505
  O       74.791     538.597    -877.102
  H       74.733     537.665    -877.416
  H       73.851     542.217    -876.091
  H       72.668     540.987    -876.467
  H       74.199     541.014    -877.310

 6  7  8  9  10  11  12  13  14  15  16  26  30  31  32  33  35 0
 6-311+G(2d,p)
 ****
 37  38 0
 6-311+G(2d,p)
 ****
 1  2  3  4  5  17  18  19  20  21  22  23  24  25 0
 3-21G
 ****
 27  28  29  34  36  39  40  41  42  43  44  45  46 0
 3-21G
 ****


