%nproc=1
%NoSave
%Mem=1900MB
#P OB98/GEN NMR

erre ene a

0 1
  C      -84.883    -428.239    -322.986
  O      -85.879    -429.265    -322.987
  P      -87.353    -428.824    -322.524
  C      -87.206    -429.620    -320.058
  O      -87.290    -428.513    -320.949
  C      -88.510    -429.799    -319.275
  O      -88.617    -431.163    -318.764
  C      -88.644    -428.851    -318.071
  O      -90.035    -428.515    -317.964
  C      -88.208    -429.738    -316.918
  O      -88.581    -429.229    -315.646
  C      -88.858    -431.050    -317.336
  N      -88.872    -433.539    -312.880
  C      -89.478    -432.397    -313.285
  N      -89.422    -431.795    -314.486
  C      -88.648    -432.503    -315.327
  C      -87.966    -433.682    -315.070
  C      -88.103    -434.210    -313.772
  N      -87.475    -435.360    -313.349
  N      -87.255    -434.095    -316.186
  C      -87.451    -433.133    -317.074
  N      -88.347    -432.205    -316.632
  O      -88.198    -430.180    -322.620
  O      -87.934    -427.728    -323.352
  H      -89.554    -429.219    -315.566
  H      -88.714    -430.202    -323.445
  H      -90.084    -431.901    -312.528
  H      -86.974    -433.069    -318.039
  H      -89.950    -431.037    -317.189
  H      -87.112    -429.831    -316.927
  H      -88.057    -427.930    -318.171
  H      -89.350    -429.645    -319.968
  H      -86.379    -429.470    -319.356
  H      -87.628    -435.656    -312.399
  H      -86.883    -435.883    -313.977
  H      -86.959    -430.526    -320.633
  P      -90.519    -427.058    -318.425
  C      -90.634    -425.988    -316.093
  O      -89.917    -426.065    -317.309
  O      -92.063    -427.112    -317.997
  O      -90.287    -426.706    -319.857
  H      -92.163    -427.415    -317.077
  H      -90.077    -425.347    -315.394
  H      -90.735    -426.982    -315.652
  H      -91.621    -425.552    -316.261
  H      -83.949    -428.648    -323.310
  H      -84.776    -427.847    -321.996
  H      -85.179    -427.454    -323.651

 3  4  5  6  7  8  9  10  11  12  22  25  29  30  31  32 0
 6-311+G(2d,p)
 ****
 33  36  37 0
 6-311+G(2d,p)
 ****
 1  2  13  14  15  16  17  18  19  20  21  23  24  26 0
 3-21G
 ****
 27  28  34  35  38  39  40  41  42  43  44  45  46  47  48 0
 3-21G
 ****


