%nproc=1
%NoSave
%Mem=1900MB
#P OB98/GEN NMR

erre ene a

0 1
  C     -898.170    1145.852    -302.971
  O     -898.240    1146.732    -304.079
  P     -898.560    1148.283    -303.791
  C     -896.490    1148.741    -305.273
  O     -897.820    1149.104    -304.949
  C     -896.320    1148.579    -306.785
  O     -896.730    1149.783    -307.467
  C     -894.890    1148.339    -307.239
  O     -894.530    1146.954    -307.119
  C     -894.990    1148.701    -308.712
  O     -895.590    1147.654    -309.459
  C     -895.930    1149.929    -308.657
  N     -893.150    1153.219    -311.426
  C     -893.640    1151.979    -311.706
  N     -894.350    1151.176    -310.917
  C     -894.530    1151.715    -309.691
  C     -894.070    1152.949    -309.247
  C     -893.360    1153.725    -310.183
  N     -892.870    1155.000    -309.866
  N     -894.440    1153.159    -307.944
  C     -895.130    1152.084    -307.600
  N     -895.230    1151.189    -308.646
  O     -897.690    1148.581    -302.499
  O     -900.000    1148.593    -303.576
  H     -895.730    1148.005    -310.366
  H     -898.050    1149.351    -302.005
  H     -893.420    1151.620    -312.699
  H     -895.590    1151.935    -306.629
  H     -896.620    1149.941    -309.514
  H     -894.020    1148.915    -309.168
  H     -894.180    1148.980    -306.722
  H     -896.980    1147.764    -307.110
  H     -896.230    1147.784    -304.784
  H     -892.530    1155.561    -310.644
  H     -893.190    1155.447    -309.010
  H     -895.800    1149.523    -304.891
  P     -892.990    1146.659    -306.700
  C     -894.000    1144.292    -306.317
  O     -892.870    1145.069    -306.682
  O     -892.980    1147.062    -305.136
  O     -891.990    1147.407    -307.496
  H     -892.060    1147.328    -304.856
  H     -893.850    1143.270    -306.641
  H     -894.930    1144.679    -306.755
  H     -894.110    1144.299    -305.211
  H     -897.952    1144.862    -303.315
  H     -899.108    1145.852    -302.456
  H     -897.398    1146.177    -302.306

 3  4  5  6  7  8  9  10  11  12  22  25  29  30  31  32 0
 6-311+G(2d,p)
 ****
 33  36  37 0
 6-311+G(2d,p)
 ****
 1  2  13  14  15  16  17  18  19  20  21  23  24  26 0
 3-21G
 ****
 27  28  34  35  38  39  40  41  42  43  44  45  46  47  48 0
 3-21G
 ****


