%nproc=1
%NoSave
%Mem=1900MB
#P OB98/GEN NMR

erre ene a

0 1
  C      -41.790     -53.496     -36.908
  O      -41.151     -52.650     -35.966
  P      -41.554     -51.096     -35.965
  C      -40.426     -49.092     -34.687
  O      -40.815     -50.456     -34.695
  C      -39.743     -48.746     -33.361
  O      -40.729     -48.643     -32.312
  C      -38.741     -49.785     -32.874
  O      -37.512     -49.705     -33.579
  C      -38.648     -49.435     -31.394
  O      -37.770     -48.313     -31.200
  C      -40.102     -49.034     -31.072
  N      -40.859     -50.092     -30.408
  C      -40.408     -50.473     -29.147
  O      -39.432     -49.962     -28.600
  N      -41.111     -51.479     -28.541
  C      -42.154     -52.171     -29.084
  O      -42.721     -53.094     -28.514
  C      -42.565     -51.747     -30.431
  C      -41.910     -50.744     -31.021
  O      -43.091     -51.192     -35.536
  O      -41.300     -50.424     -37.270
  H      -43.270     -51.987     -35.004
  H      -37.020     -48.441     -31.812
  H      -40.817     -51.757     -27.616
  H      -43.384     -52.278     -30.899
  H      -42.192     -50.425     -32.017
  H      -40.117     -48.145     -30.430
  H      -38.263     -50.262     -30.789
  H      -39.164     -50.791     -32.987
  H      -39.258     -47.767     -33.471
  H      -41.314     -48.468     -34.814
  H      -39.747     -48.910     -35.526
  P      -36.510     -50.955     -33.421
  C      -35.096     -52.370     -35.102
  O      -35.981     -51.292     -34.894
  O      -37.538     -52.137     -33.089
  O      -35.452     -50.747     -32.389
  H      -38.341     -52.104     -33.635
  H      -35.136     -52.659     -36.156
  H      -35.366     -53.234     -34.489
  H      -34.076     -52.057     -34.861
  H      -41.426     -54.496     -36.794
  H      -41.579     -53.150     -37.898
  H      -42.847     -53.480     -36.742

 3  4  5  6  7  8  9  10  11  12  13  24  28  29  30  31  32 0
 6-311+G(2d,p)
 ****
 33  34 0
 6-311+G(2d,p)
 ****
 1  2  14  15  16  17  18  19  20  21  22  23  25  26  27 0
 3-21G
 ****
 35  36  37  38  39  40  41  42  43  44  45 0
 3-21G
 ****


