%nproc=1
%NoSave
%Mem=1900MB
#P OB98/GEN NMR

erre ene a

0 1
  C     -286.167    -431.394     247.495
  O     -284.968    -430.656     247.652
  H     -286.792    -431.297     248.386
  H     -286.713    -430.997     246.634
  H     -285.934    -432.448     247.313
  P     -284.074    -431.016     248.935
  C     -284.273    -429.234     250.810
  O     -284.832    -430.398     250.209
  C     -284.542    -428.011     249.936
  O     -285.958    -427.898     249.659
  C     -284.154    -426.681     250.570
  O     -282.757    -426.443     250.481
  C     -284.947    -425.715     249.695
  O     -284.240    -425.483     248.464
  C     -286.236    -426.496     249.428
  N     -290.120    -423.178     250.018
  C     -289.184    -423.299     249.055
  N     -288.179    -424.196     248.966
  C     -288.198    -425.053     250.004
  C     -289.095    -425.053     251.068
  C     -290.099    -424.050     251.055
  N     -291.038    -423.926     252.057
  N     -288.814    -426.077     251.947
  C     -287.770    -426.686     251.425
  N     -287.355    -426.099     250.262
  O     -282.790    -430.074     248.769
  O     -283.681    -432.455     249.060
  H     -283.423    -425.004     248.691
  H     -282.002    -430.551     249.095
  H     -289.249    -422.588     248.239
  H     -287.293    -427.559     251.854
  H     -286.550    -426.404     248.374
  H     -285.103    -424.746     250.167
  H     -284.515    -426.610     251.605
  H     -284.019    -428.162     248.985
  H     -283.190    -429.362     250.918
  H     -291.828    -423.330     251.897
  H     -291.004    -424.586     252.819
  H     -284.722    -429.104     251.799
  P     -282.106    -425.429     251.553
  C     -281.367    -423.214     250.426
  O     -282.437    -423.959     251.012
  O     -280.535    -425.587     251.295
  O     -282.471    -425.707     252.982
  H     -280.044    -425.350     252.110
  H     -281.729    -422.258     250.111
  H     -280.983    -423.746     249.581
  H     -280.588    -423.081     251.148

 6  7  8  9  10  11  12  13  14  15  25  28  32  33  34  35 0
 6-311+G(2d,p)
 ****
 36  39  40 0
 6-311+G(2d,p)
 ****
 1  2  3  4  5  16  17  18  19  20  21  22  23  24 0
 3-21G
 ****
 26  27  29  30  31  37  38  41  42  43  44  45  46  47  48 0
 3-21G
 ****


