%nproc=1
%NoSave
%Mem=1900MB
#P OB98/GEN NMR

erre ene a

0 1
  C      491.718    -598.305     109.098
  O      492.011    -596.992     109.579
  P      491.940    -596.715     111.159
  C      492.613    -594.736     112.659
  O      492.089    -595.139     111.395
  C      493.369    -593.408     112.537
  O      494.586    -593.555     111.787
  C      492.572    -592.331     111.817
  O      491.547    -591.813     112.643
  C      493.679    -591.349     111.446
  O      493.988    -590.488     112.556
  C      494.871    -592.286     111.164
  N      495.148    -592.444     109.739
  C      496.240    -591.725     109.244
  O      496.882    -590.986     109.986
  N      496.570    -591.868     107.921
  C      495.865    -592.637     107.154
  N      496.236    -592.735     105.849
  C      494.689    -593.402     107.631
  C      494.388    -593.250     108.920
  O      492.821    -597.577     112.001
  O      490.393    -596.968     111.491
  H      494.655    -589.849     112.226
  H      490.320    -597.297     112.415
  H      494.137    -594.040     106.961
  H      493.541    -593.771     109.363
  H      495.780    -591.899     111.639
  H      493.387    -590.703     110.609
  H      492.133    -592.750     110.900
  H      493.616    -593.068     113.558
  H      497.029    -592.192     105.539
  H      493.283    -595.509     113.043
  H      495.780    -593.345     105.189
  H      491.783    -594.652     113.375
  P      490.042    -591.906     112.105
  C      487.754    -592.469     113.200
  O      489.073    -591.997     113.379
  O      489.974    -593.386     111.491
  O      489.669    -590.878     111.082
  H      489.374    -593.390     110.716
  H      487.350    -592.761     114.167
  H      487.737    -593.344     112.532
  H      487.129    -591.683     112.774
  H      491.809    -598.323     108.032
  H      490.720    -598.572     109.375
  H      492.406    -599.004     109.527

 3  4  5  6  7  8  9  10  11  12  13  23  27  28  29  30  32 0
 6-311+G(2d,p)
 ****
 34  35 0
 6-311+G(2d,p)
 ****
 1  2  14  15  16  17  18  19  20  21  22  24  25  26 0
 3-21G
 ****
 31  33  36  37  38  39  40  41  42  43  44  45  46 0
 3-21G
 ****


