%nproc=1
%NoSave
%Mem=1900MB
#P OB98/GEN NMR

erre ene a

0 1
  C     1952.283    -776.855     201.528
  O     1951.269    -777.827     201.669
  H     1952.707    -776.948     200.522
  H     1953.078    -777.024     202.256
  H     1951.872    -775.853     201.643
  P     1950.493    -777.949     203.067
  C     1948.093    -777.872     202.148
  O     1949.108    -777.160     202.859
  C     1947.723    -777.168     200.848
  O     1948.898    -777.079     200.001
  C     1946.627    -777.881     200.048
  O     1945.653    -776.927     199.621
  C     1947.367    -778.436     198.835
  O     1946.517    -778.641     197.719
  C     1948.459    -777.364     198.659
  N     1949.542    -777.837     197.801
  C     1949.328    -777.716     196.424
  O     1948.272    -777.230     195.989
  N     1950.280    -778.191     195.562
  C     1951.331    -778.778     196.037
  N     1952.228    -779.253     195.130
  C     1951.583    -778.950     197.481
  C     1950.662    -778.456     198.301
  O     1951.286    -777.524     204.264
  O     1950.020    -779.478     203.145
  H     1947.019    -779.131     197.024
  H     1949.858    -779.714     204.087
  H     1952.485    -779.453     197.822
  H     1950.760    -778.530     199.377
  H     1948.047    -776.435     198.231
  H     1947.823    -779.386     199.094
  H     1946.131    -778.674     200.606
  H     1947.439    -776.137     201.086
  H     1952.010    -779.122     194.144
  H     1947.217    -777.967     202.805
  H     1953.066    -779.751     195.375
  H     1948.481    -778.878     201.926
  P     1944.175    -777.108     200.229
  C     1943.969    -775.028     201.765
  O     1944.151    -776.429     201.676
  O     1944.094    -778.678     200.525
  O     1943.093    -776.651     199.295
  H     1943.455    -779.088     199.888
  H     1943.977    -774.732     202.793
  H     1943.031    -774.761     201.324
  H     1944.762    -774.532     201.245

 6  7  8  9  10  11  12  13  14  15  16  26  30  31  32  33  35 0
 6-311+G(2d,p)
 ****
 37  38 0
 6-311+G(2d,p)
 ****
 1  2  3  4  5  17  18  19  20  21  22  23  24  25 0
 3-21G
 ****
 27  28  29  34  36  39  40  41  42  43  44  45  46 0
 3-21G
 ****


