%nproc=1
%NoSave
%Mem=1900MB
#P OB98/GEN NMR

erre ene a

0 1
  C       36.423      84.970    -106.404
  O       35.980      85.344    -105.113
  H       35.717      84.247    -106.820
  H       37.410      84.506    -106.343
  H       36.459      85.846    -107.056
  P       36.874      86.427    -104.336
  C       37.515      84.499    -102.731
  O       37.023      85.827    -102.856
  C       37.002      83.858    -101.445
  O       37.758      84.320    -100.312
  C       35.545      84.169    -101.126
  O       34.674      83.335    -101.872
  C       35.504      83.844     -99.641
  O       35.394      82.419     -99.458
  C       36.881      84.330     -99.154
  N       35.584      87.166     -95.076
  C       35.276      85.898     -95.422
  N       35.620      85.224     -96.540
  C       36.362      85.993     -97.351
  C       36.757      87.304     -97.131
  C       36.344      87.894     -95.926
  N       36.671      89.186     -95.571
  N       37.511      87.771     -98.187
  C       37.617      86.743     -99.004
  N       36.907      85.654     -98.561
  O       36.412      87.838    -104.436
  O       38.319      86.137    -104.967
  H       35.163      82.260     -98.524
  H       38.448      85.182    -105.098
  H       34.673      85.348     -94.704
  H       38.202      86.728     -99.915
  H       37.311      83.649     -98.411
  H       34.646      84.296     -99.141
  H       35.323      85.232    -101.266
  H       37.163      82.775    -101.522
  H       38.610      84.496    -102.738
  H       36.195      89.584     -94.777
  H       37.130      89.764     -96.260
  H       37.164      83.935    -103.601
  P       33.749      83.945    -103.029
  C       31.827      82.586    -101.994
  O       32.504      82.944    -103.194
  O       34.457      84.268    -104.299
  O       33.087      85.241    -102.371
  H       33.023      85.961    -103.029
  H       31.021      81.920    -102.224
  H       31.439      83.467    -101.527
  H       32.511      82.101    -101.329

 6  7  8  9  10  11  12  13  14  15  25  28  32  33  34  35 0
 6-311+G(2d,p)
 ****
 36  39  40 0
 6-311+G(2d,p)
 ****
 1  2  3  4  5  16  17  18  19  20  21  22  23  24 0
 3-21G
 ****
 26  27  29  30  31  37  38  41  42  43  44  45  46  47 0
 3-21G
 ****
 48 0
 3-21G
 ****


