%nproc=1
%NoSave
%Mem=1900MB
#P OB98/GEN NMR

erre ene a

0 1
  C     -100.257     101.416    -249.059
  O      -99.836     100.153    -249.535
  H     -100.520     101.325    -248.001
  H     -101.143     101.755    -249.611
  H      -99.450     102.146    -249.161
  P      -99.439     100.065    -251.089
  C      -97.601      98.775    -252.382
  O      -98.111      99.163    -251.112
  C      -96.444      97.793    -252.216
  O      -95.278      98.475    -251.723
  C      -96.720      96.653    -251.239
  O      -97.440      95.612    -251.876
  C      -95.304      96.225    -250.889
  O      -94.794      95.365    -251.929
  C      -94.534      97.556    -250.883
  N      -91.699      97.611    -246.602
  C      -91.724      96.755    -247.648
  N      -92.542      96.771    -248.724
  C      -93.393      97.806    -248.667
  C      -93.482      98.756    -247.656
  C      -92.581      98.639    -246.586
  N      -92.556      99.513    -245.519
  N      -94.481      99.674    -247.932
  C      -94.942      99.313    -249.113
  N      -94.346      98.168    -249.582
  O      -99.364     101.368    -251.811
  O     -100.557      99.052    -251.631
  H      -95.498      94.723    -252.141
  H     -100.703      98.332    -250.991
  H      -90.997      95.950    -247.614
  H      -95.695      99.853    -249.680
  H      -93.530      97.448    -251.325
  H      -95.252      95.658    -249.956
  H      -97.221      97.010    -250.330
  H      -96.196      97.396    -253.212
  H      -97.262      99.659    -252.939
  H      -92.015      99.239    -244.716
  H      -93.297     100.191    -245.452
  H      -98.423      98.311    -252.939
  P      -98.347      94.593    -251.031
  C     -100.522      93.304    -251.513
  O      -99.640      94.336    -251.949
  O      -98.625      95.025    -249.632
  O      -97.565      93.202    -251.115
  H      -97.892      92.596    -250.420
  H     -101.341      93.223    -252.196
  H     -100.893      93.540    -250.538
  H      -99.993      92.374    -251.478

 6  7  8  9  10  11  12  13  14  15  25  28  32  33  34  35 0
 6-311+G(2d,p)
 ****
 36  39  40 0
 6-311+G(2d,p)
 ****
 1  2  3  4  5  16  17  18  19  20  21  22  23  24 0
 3-21G
 ****
 26  27  29  30  31  37  38  41  42  43  44  45  46  47 0
 3-21G
 ****
 48 0
 3-21G
 ****


