%nproc=1
%NoSave
%Mem=1900MB
#P OB98/GEN NMR

erre ene a

0 1
  C     -457.896     236.311     152.575
  O     -456.720     236.801     153.187
  H     -458.626     237.125     152.515
  H     -458.320     235.505     153.176
  H     -457.685     235.953     151.562
  P     -455.431     235.848     153.169
  C     -453.987     237.993     152.895
  O     -454.179     236.765     153.583
  C     -452.819     238.760     153.512
  O     -453.173     239.126     154.876
  C     -451.510     237.959     153.578
  O     -450.419     238.855     153.352
  C     -451.473     237.482     155.020
  O     -450.170     237.173     155.491
  C     -452.104     238.681     155.737
  N     -452.605     238.341     157.065
  C     -451.993     238.952     158.154
  O     -451.123     239.818     158.077
  N     -452.423     238.529     159.387
  C     -453.360     237.566     159.628
  O     -453.688     237.218     160.755
  C     -453.964     236.952     158.437
  C     -453.563     237.360     157.231
  O     -455.199     235.587     151.608
  O     -455.557     234.581     153.949
  H     -455.696     234.800     151.316
  H     -450.259     236.865     156.419
  H     -451.991     238.961     160.188
  H     -454.703     236.177     158.589
  H     -453.973     236.911     156.331
  H     -451.383     239.503     155.813
  H     -452.096     236.588     155.134
  H     -451.459     237.126     152.870
  H     -452.675     239.693     152.956
  H     -454.894     238.600     152.976
  H     -453.792     237.786     151.838
  P     -449.658     238.749     151.943
  C     -448.650     241.153     152.202
  O     -448.419     239.759     152.045
  O     -450.695     239.485     150.977
  O     -449.325     237.345     151.566
  H     -451.158     240.225     151.408
  H     -447.713     241.667     152.251
  H     -449.198     241.324     153.105
  H     -449.213     241.517     151.368

 6  7  8  9  10  11  12  13  14  15  16  27  31  32  33  34  35 0
 6-311+G(2d,p)
 ****
 36  37 0
 6-311+G(2d,p)
 ****
 1  2  3  4  5  17  18  19  20  21  22  23  24  25 0
 3-21G
 ****
 26  28  29  30  38  39  40  41  42  43  44  45 0
 3-21G
 ****


