%nproc=1
%NoSave
%Mem=1900MB
#P OB98/GEN NMR

erre ene a

0 1
  C       32.372     439.138     413.100
  O       31.334     438.313     412.590
  P       31.067     436.850     413.184
  C       28.509     436.881     412.892
  O       29.737     436.335     412.431
  C       27.378     436.510     411.937
  O       27.681     437.059     410.633
  C       27.168     435.011     411.699
  O       26.367     434.365     412.677
  C       26.421     435.035     410.371
  O       25.035     435.363     410.599
  C       27.126     436.176     409.626
  N       28.716     435.788     404.778
  C       27.619     436.344     405.325
  N       27.250     436.392     406.622
  C       28.190     435.818     407.393
  C       29.366     435.206     406.978
  C       29.621     435.208     405.599
  N       30.759     434.653     405.035
  N       30.066     434.711     408.064
  C       29.329     435.025     409.108
  N       28.196     435.698     408.760
  O       31.040     436.783     414.672
  O       32.211     435.938     412.540
  H       24.616     435.444     409.722
  H       32.305     435.104     413.035
  H       26.926     436.822     404.626
  H       29.584     434.779     410.135
  H       26.430     436.769     409.018
  H       26.442     434.066     409.858
  H       28.129     434.492     411.568
  H       26.452     436.976     412.294
  H       28.609     437.976     412.929
  H       30.917     434.812     404.055
  H       31.506     434.371     405.665
  H       28.297     436.526     413.911
  P       26.022     432.807     412.438
  C       25.114     431.899     414.717
  O       24.831     432.471     413.466
  O       27.206     431.898     412.494
  O       25.288     432.822     411.011
  H       24.424     433.272     410.991
  H       24.196     431.894     415.316
  H       25.871     432.470     415.251
  H       25.455     430.859     414.593
  H       32.382     440.068     412.570
  H       33.314     438.646     412.974
  H       32.203     439.322     414.140

 3  4  5  6  7  8  9  10  11  12  22  25  29  30  31  32 0
 6-311+G(2d,p)
 ****
 33  36  37 0
 6-311+G(2d,p)
 ****
 1  2  13  14  15  16  17  18  19  20  21  23  24  26 0
 3-21G
 ****
 27  28  34  35  38  39  40  41  42  43  44  45  46  47  48 0
 3-21G
 ****


