%nproc=1
%NoSave
%Mem=1900MB
#P OB98/GEN NMR

erre ene a

0 1
  C     -229.065     -80.888    -143.239
  O     -229.889     -81.765    -142.499
  H     -228.227     -81.438    -143.677
  H     -229.655     -80.448    -144.047
  H     -228.690     -80.087    -142.598
  P     -229.213     -82.515    -141.251
  C     -228.462     -84.495    -142.759
  O     -228.069     -83.454    -141.875
  C     -227.616     -85.735    -142.498
  O     -226.316     -85.591    -143.113
  C     -227.345     -86.011    -141.022
  O     -228.431     -86.666    -140.391
  C     -226.136     -86.925    -141.129
  O     -226.559     -88.249    -141.509
  C     -225.347     -86.270    -142.270
  N     -220.343     -85.321    -141.786
  C     -221.015     -86.388    -142.266
  N     -222.348     -86.565    -142.355
  C     -223.004     -85.493    -141.886
  C     -222.454     -84.336    -141.359
  C     -221.050     -84.266    -141.325
  N     -220.360     -83.185    -140.822
  N     -223.447     -83.466    -140.945
  C     -224.574     -84.079    -141.250
  N     -224.359     -85.310    -141.811
  O     -230.331     -83.564    -140.791
  O     -228.759     -81.637    -140.134
  H     -227.130     -88.577    -140.788
  H     -230.172     -83.841    -139.870
  H     -220.400     -87.210    -142.622
  H     -225.563     -83.674    -141.085
  H     -224.823     -87.004    -142.893
  H     -225.589     -87.022    -140.189
  H     -227.058     -85.098    -140.488
  H     -228.113     -86.593    -142.969
  H     -228.313     -84.165    -143.791
  H     -219.371     -83.311    -140.673
  H     -220.879     -82.464    -140.341
  H     -229.521     -84.718    -142.604
  P     -228.697     -86.325    -138.846
  C     -227.776     -88.632    -138.071
  O     -227.651     -87.214    -138.016
  O     -230.103     -87.032    -138.556
  O     -228.715     -84.868    -138.520
  H     -230.571     -86.585    -137.824
  H     -227.012     -89.081    -137.471
  H     -227.672     -88.960    -139.084
  H     -228.737     -88.920    -137.699

 6  7  8  9  10  11  12  13  14  15  25  28  32  33  34  35 0
 6-311+G(2d,p)
 ****
 36  39  40 0
 6-311+G(2d,p)
 ****
 1  2  3  4  5  16  17  18  19  20  21  22  23  24 0
 3-21G
 ****
 26  27  29  30  31  37  38  41  42  43  44  45  46  47 0
 3-21G
 ****
 48 0
 3-21G
 ****


