%nproc=1
%NoSave
%Mem=1900MB
#P OB98/GEN NMR

erre ene a

0 1
  C     -106.913     288.767    -393.148
  O     -106.832     289.577    -394.323
  P     -108.003     289.386    -395.407
  C     -106.780     287.880    -397.119
  O     -107.803     287.975    -396.143
  C     -106.850     286.562    -397.905
  O     -105.847     286.519    -398.954
  C     -106.614     285.323    -397.024
  O     -107.433     284.268    -397.561
  C     -105.167     284.987    -397.272
  O     -104.871     283.627    -396.940
  C     -105.036     285.345    -398.760
  N     -103.653     285.564    -399.187
  C     -102.850     284.428    -399.359
  O     -103.294     283.308    -399.087
  N     -101.553     284.589    -399.789
  C     -101.087     285.777    -399.991
  N      -99.792     285.869    -400.417
  C     -101.872     287.001    -399.761
  C     -103.132     286.821    -399.370
  O     -107.639     290.467    -396.538
  O     -109.378     289.626    -394.852
  H     -103.891     283.515    -396.968
  H     -108.425     291.004    -396.750
  H     -101.428     287.987    -399.922
  H     -103.788     287.662    -399.181
  H     -105.455     284.547    -399.389
  H     -104.518     285.640    -396.665
  H     -106.869     285.481    -395.968
  H     -107.833     286.499    -398.379
  H      -99.285     285.003    -400.571
  H     -105.798     287.957    -396.639
  H      -99.323     286.745    -400.599
  H     -106.853     288.742    -397.803
  P     -108.655     283.724    -396.675
  C     -107.152     282.718    -394.837
  O     -108.103     283.722    -395.165
  O     -108.632     282.155    -397.023
  O     -110.007     284.310    -396.905
  H     -109.383     281.710    -396.605
  H     -106.778     282.909    -393.833
  H     -106.319     282.748    -395.541
  H     -107.627     281.734    -394.864
  H     -106.084     288.984    -392.508
  H     -106.890     287.734    -393.425
  H     -107.826     288.977    -392.632

 3  4  5  6  7  8  9  10  11  12  13  21  23  27  28  29  30  32 0
 6-311+G(2d,p)
 ****
 34  35 0
 6-311+G(2d,p)
 ****
 1  2  14  15  16  17  18  19  20  22  24  25  26 0
 3-21G
 ****
 31  33  36  37  38  39  40  41  42  43  44  45  46 0
 3-21G
 ****


