%nproc=1
%NoSave
%Mem=1900MB
#P OB98/GEN NMR

erre ene a

0 1
  C     -139.117    -667.422       4.022
  O     -137.847    -667.756       4.561
  P     -137.585    -667.405       6.107
  C     -138.663    -665.483       7.487
  O     -138.003    -665.872       6.284
  C     -139.161    -664.045       7.384
  O     -140.540    -664.030       6.978
  C     -139.105    -663.276       8.692
  O     -137.779    -662.860       8.965
  C     -140.069    -662.133       8.406
  O     -139.396    -661.037       7.752
  C     -141.105    -662.788       7.469
  N     -142.387    -663.001       8.115
  C     -143.256    -661.902       8.125
  O     -142.902    -660.833       7.629
  N     -144.479    -662.036       8.733
  C     -144.801    -663.167       9.289
  N     -146.028    -663.241       9.869
  C     -143.909    -664.341       9.317
  C     -142.729    -664.191       8.723
  O     -135.989    -667.372       6.201
  O     -138.198    -668.362       7.075
  H     -138.803    -661.455       7.096
  H     -135.693    -667.581       7.114
  H     -144.228    -665.256       9.786
  H     -142.009    -664.999       8.697
  H     -141.268    -662.163       6.584
  H     -140.505    -661.726       9.325
  H     -139.485    -663.891       9.515
  H     -138.572    -663.535       6.601
  H     -146.618    -662.416       9.842
  H     -137.957    -665.553       8.322
  H     -146.384    -664.080      10.309
  H     -139.496    -666.172       7.672
  P     -137.375    -662.617      10.493
  C     -138.766    -661.182      12.097
  O     -138.047    -661.217      10.882
  O     -135.822    -662.230      10.375
  O     -137.605    -663.747      11.443
  H     -135.432    -662.152      11.266
  H     -139.035    -660.145      12.321
  H     -138.150    -661.569      12.917
  H     -139.684    -661.774      12.008
  H     -139.154    -667.709       2.992
  H     -139.273    -666.367       4.104
  H     -139.881    -667.939       4.564

 3  4  5  6  7  8  9  10  11  12  13  21  23  27  28  29  30  32 0
 6-311+G(2d,p)
 ****
 34  35 0
 6-311+G(2d,p)
 ****
 1  2  14  15  16  17  18  19  20  22  24  25  26 0
 3-21G
 ****
 31  33  36  37  38  39  40  41  42  43  44  45  46 0
 3-21G
 ****


