%nproc=1
%NoSave
%Mem=1900MB
#P OB98/GEN NMR

erre ene a

0 1
  C      521.947    -263.699     155.497
  O      522.118    -262.400     154.919
  P      520.793    -261.578     154.535
  C      522.163    -259.368     154.250
  O      521.288    -260.323     153.665
  C      522.695    -258.402     153.186
  O      523.730    -259.066     152.391
  C      521.631    -257.875     152.218
  O      521.968    -256.504     151.938
  C      521.832    -258.730     150.986
  O      521.323    -258.112     149.808
  C      523.360    -258.903     151.009
  N      523.815    -260.032     150.199
  C      523.848    -259.845     148.817
  O      523.433    -258.819     148.270
  N      524.316    -260.894     148.084
  C      524.677    -262.117     148.575
  O      525.090    -263.030     147.867
  C      524.513    -262.295     150.022
  C      524.094    -261.262     150.756
  O      520.390    -260.955     155.948
  O      519.746    -262.431     153.895
  H      521.155    -260.685     156.488
  H      521.743    -257.230     149.711
  H      524.374    -260.770     147.085
  H      524.732    -263.269     150.442
  H      523.945    -261.365     151.827
  H      523.856    -257.997     150.638
  H      521.335    -259.696     151.112
  H      520.616    -257.931     152.624
  H      523.180    -257.562     153.707
  H      523.010    -259.878     154.721
  H      521.631    -258.835     155.043
  P      520.776    -255.427     151.867
  C      522.244    -253.787     153.285
  O      521.420    -253.991     152.158
  O      520.010    -255.765     153.241
  O      519.890    -255.543     150.674
  H      520.616    -255.847     153.999
  H      522.762    -252.834     153.175
  H      522.985    -254.588     153.388
  H      521.626    -253.747     154.197
  H      522.906    -264.128     155.701
  H      521.414    -264.326     154.813
  H      521.393    -263.614     156.409

 3  4  5  6  7  8  9  10  11  12  13  24  28  29  30  31  32 0
 6-311+G(2d,p)
 ****
 33  34 0
 6-311+G(2d,p)
 ****
 1  2  14  15  16  17  18  19  20  21  22  23  25  26  27 0
 3-21G
 ****
 35  36  37  38  39  40  41  42  43  44  45 0
 3-21G
 ****


