%nproc=1
%NoSave
%Mem=1900MB
#P OB98/GEN NMR

erre ene a

0 1
  C       48.871      39.805      42.329
  O       49.109      40.186      40.987
  H       47.792      39.768      42.497
  H       49.309      40.538      43.011
  H       49.293      38.816      42.519
  P       50.644      40.275      40.531
  C       50.473      37.879      39.568
  O       51.130      38.748      40.480
  C       51.457      37.357      38.524
  O       52.644      36.848      39.157
  C       50.919      36.215      37.671
  O       50.096      36.707      36.627
  C       52.216      35.626      37.137
  O       52.694      36.421      36.035
  C       53.168      35.769      38.338
  N       55.009      30.984      38.587
  C       54.890      31.848      37.556
  N       54.353      33.085      37.553
  C       53.906      33.414      38.776
  C       53.959      32.637      39.923
  C       54.552      31.370      39.800
  N       54.680      30.495      40.858
  N       53.401      33.305      40.993
  C       53.066      34.484      40.511
  N       53.318      34.587      39.166
  O       51.496      41.217      41.309
  O       50.480      40.632      38.978
  H       52.734      37.348      36.337
  H       49.730      40.146      38.593
  H       55.281      31.498      36.604
  H       52.656      35.301      41.094
  H       54.178      36.057      38.023
  H       52.087      34.609      36.763
  H       50.410      35.464      38.282
  H       51.761      38.205      37.897
  H       49.646      38.400      39.074
  H       54.958      29.549      40.648
  H       54.228      30.734      41.728
  H       50.060      37.047      40.147
  P       48.993      35.767      35.944
  C       47.240      36.053      37.802
  O       48.116      35.149      37.139
  O       49.527      34.761      34.984
  O       47.980      36.781      35.240
  H       47.677      36.420      34.385
  H       46.710      35.535      38.574
  H       46.541      36.454      37.098
  H       47.809      36.850      38.233

 6  7  8  9  10  11  12  13  14  15  25  28  32  33  34  35 0
 6-311+G(2d,p)
 ****
 36  39  40 0
 6-311+G(2d,p)
 ****
 1  2  3  4  5  16  17  18  19  20  21  22  23  24 0
 3-21G
 ****
 26  27  29  30  31  37  38  41  42  43  44  45  46  47 0
 3-21G
 ****
 48 0
 3-21G
 ****


