%nproc=1
%NoSave
%Mem=1900MB
#P OB98/GEN NMR

erre ene a

0 1
  C     -565.269    -505.198     285.697
  O     -565.159    -504.604     286.971
  H     -564.423    -505.867     285.517
  H     -566.194    -505.783     285.658
  H     -565.307    -504.422     284.921
  P     -563.868    -503.687     287.238
  C     -562.828    -505.086     289.171
  O     -562.740    -504.679     287.812
  C     -561.427    -505.223     289.756
  O     -560.628    -506.095     288.930
  C     -560.651    -503.921     289.849
  O     -561.008    -503.157     290.990
  C     -559.227    -504.444     289.963
  O     -558.986    -504.914     291.303
  C     -559.255    -505.621     288.983
  N     -555.213    -504.672     285.985
  C     -555.304    -504.987     287.296
  N     -556.428    -505.217     288.018
  C     -557.522    -505.100     287.256
  C     -557.577    -504.792     285.906
  C     -556.344    -504.571     285.257
  N     -556.240    -504.240     283.926
  N     -558.887    -504.726     285.468
  C     -559.603    -505.035     286.530
  N     -558.823    -505.264     287.632
  O     -564.274    -502.825     288.521
  O     -563.430    -502.837     286.090
  H     -559.702    -505.539     291.516
  H     -563.717    -502.025     288.578
  H     -554.369    -505.053     287.841
  H     -560.687    -505.112     286.549
  H     -558.626    -506.452     289.309
  H     -558.469    -503.683     289.748
  H     -560.744    -503.329     288.923
  H     -561.515    -505.693     290.748
  H     -563.341    -506.052     289.227
  H     -555.334    -503.930     283.610
  H     -557.085    -504.013     283.417
  H     -563.399    -504.339     289.734
  P     -560.736    -501.576     290.933
  C     -558.520    -501.484     292.313
  O     -559.148    -501.399     291.028
  O     -561.254    -501.068     292.363
  O     -561.405    -500.864     289.802
  H     -561.532    -500.134     292.315
  H     -557.465    -501.345     292.204
  H     -558.711    -502.446     292.740
  H     -558.916    -500.724     292.954

 6  7  8  9  10  11  12  13  14  15  25  28  32  33  34  35 0
 6-311+G(2d,p)
 ****
 36  39  40 0
 6-311+G(2d,p)
 ****
 1  2  3  4  5  16  17  18  19  20  21  22  23  24 0
 3-21G
 ****
 26  27  29  30  31  37  38  41  42  43  44  45  46  47 0
 3-21G
 ****
 48 0
 3-21G
 ****


