%nproc=1
%NoSave
%Mem=1900MB
#P OB98/GEN NMR

erre ene a

0 1
  C      472.794     414.206     182.721
  O      472.944     414.177     181.295
  P      474.363     414.596     180.680
  C      473.629     416.879     179.663
  O      474.431     416.196     180.619
  C      474.082     418.333     179.515
  O      473.853     419.107     180.700
  C      475.563     418.474     179.197
  O      475.838     418.275     177.817
  C      475.803     419.927     179.596
  O      475.369     420.803     178.522
  C      474.904     420.101     180.812
  N      478.560     421.923     183.912
  C      478.121     422.331     182.699
  N      477.155     421.776     181.919
  C      476.605     420.714     182.536
  C      476.950     420.193     183.772
  C      477.962     420.840     184.489
  N      478.407     420.435     185.735
  N      476.172     419.087     184.084
  C      475.364     418.952     183.040
  N      475.588     419.912     182.076
  O      474.247     414.171     179.140
  O      475.532     413.931     181.345
  H      475.639     421.717     178.777
  H      475.118     413.865     178.811
  H      478.614     423.205     182.289
  H      474.601     418.193     182.928
  H      474.416     421.088     180.846
  H      476.876     420.156     179.754
  H      476.164     417.805     179.846
  H      473.486     418.789     178.686
  H      472.575     416.850     179.954
  H      479.122     420.981     186.189
  H      477.950     419.647     186.170
  H      473.679     416.353     178.686
  P      476.615     416.937     177.406
  C      479.145     417.442     177.686
  O      477.982     416.920     178.265
  O      477.095     417.239     175.922
  O      475.788     415.700     177.486
  H      477.146     416.411     175.399
  H      479.878     417.648     178.473
  H      478.960     418.383     177.142
  H      479.571     416.717     176.986
  H      471.801     413.904     182.981
  H      472.970     415.199     183.078
  H      473.499     413.537     183.168

 3  4  5  6  7  8  9  10  11  12  22  25  29  30  31  32 0
 6-311+G(2d,p)
 ****
 33  36  37 0
 6-311+G(2d,p)
 ****
 1  2  13  14  15  16  17  18  19  20  21  23  24  26 0
 3-21G
 ****
 27  28  34  35  38  39  40  41  42  43  44  45  46  47  48 0
 3-21G
 ****


