%nproc=1
%NoSave
%Mem=1900MB
#P OB98/GEN NMR

erre ene a

0 1
  C      -53.547    -110.479    -181.658
  O      -53.284    -109.710    -180.501
  H      -53.379    -109.857    -182.540
  H      -54.588    -110.816    -181.657
  H      -52.875    -111.342    -181.700
  P      -53.534    -110.437    -179.091
  C      -55.774    -109.131    -179.132
  O      -55.113    -110.348    -178.812
  C      -57.288    -109.303    -179.027
  O      -57.749    -110.340    -179.918
  C      -57.784    -109.668    -177.631
  O      -57.928    -108.510    -176.825
  C      -59.118    -110.329    -177.956
  O      -60.140    -109.338    -178.201
  C      -58.789    -111.099    -179.243
  N      -60.333    -115.879    -178.695
  C      -61.067    -114.712    -178.806
  N      -62.412    -114.828    -178.734
  N      -60.530    -113.530    -178.961
  C      -59.175    -113.555    -178.959
  C      -58.339    -114.641    -178.854
  C      -58.946    -115.950    -178.735
  O      -58.355    -117.028    -178.714
  N      -57.020    -114.260    -178.909
  C      -57.064    -112.945    -179.015
  N      -58.349    -112.469    -179.042
  O      -52.914    -109.411    -178.026
  O      -52.925    -111.793    -178.950
  H      -60.164    -108.713    -177.459
  H      -52.482    -109.921    -177.315
  H      -60.801    -116.764    -178.605
  H      -56.197    -112.297    -179.081
  H      -59.649    -111.145    -179.921
  H      -59.475    -110.940    -177.125
  H      -62.857    -115.641    -178.332
  H      -57.122    -110.403    -177.158
  H      -62.942    -113.966    -178.744
  H      -57.748    -108.361    -179.366
  H      -55.512    -108.844    -180.157
  H      -55.441    -108.348    -178.444
  P      -57.617    -108.636    -175.257
  C      -60.127    -108.357    -174.645
  O      -58.953    -109.151    -174.525
  O      -57.497    -107.107    -174.792
  O      -56.374    -109.394    -174.925
  H      -56.559    -106.880    -174.643
  H      -60.928    -108.822    -174.110
  H      -60.392    -108.267    -175.678
  H      -59.943    -107.385    -174.238

 6  7  8  9  10  11  12  13  14  15  26  29  33  34 0
 6-311+G(2d,p)
 ****
 36  38  39  40  41 0
 6-311+G(2d,p)
 ****
 1  2  3  4  5  16  17  18  19  20  21  22  23  24  25 0
 3-21G
 ****
 27  28  30  31  32  35  37  42  43  44  45  46  47 0
 3-21G
 ****
 48  49 0
 3-21G
 ****


