%nproc=1
%NoSave
%Mem=1900MB
#P OB98/GEN NMR

erre ene a

0 1
  C     -557.393     103.802    -124.674
  O     -558.350     103.254    -123.788
  H     -557.879     104.107    -125.609
  H     -556.943     104.685    -124.211
  H     -556.602     103.075    -124.881
  P     -559.129     101.948    -124.313
  C     -561.134     103.124    -125.464
  O     -559.930     102.383    -125.637
  C     -561.842     103.289    -126.813
  O     -562.214     101.974    -127.300
  C     -563.129     104.153    -126.742
  O     -563.105     105.163    -127.754
  C     -564.249     103.168    -127.061
  O     -565.312     103.767    -127.786
  C     -563.534     102.090    -127.860
  N     -567.773      99.654    -129.287
  C     -567.175     100.758    -129.781
  N     -565.987     101.304    -129.426
  C     -565.399     100.555    -128.460
  C     -565.882      99.396    -127.878
  C     -567.137      98.949    -128.316
  N     -567.787      97.855    -127.780
  N     -565.004      98.927    -126.922
  C     -564.021      99.812    -126.896
  N     -564.224     100.825    -127.806
  O     -560.294     101.763    -123.216
  O     -558.286     100.725    -124.428
  H     -564.933     104.079    -128.636
  H     -560.170     100.901    -122.777
  H     -567.712     101.285    -130.569
  H     -563.173      99.788    -126.224
  H     -563.414     102.367    -128.913
  H     -564.646     102.773    -126.116
  H     -563.268     104.616    -125.760
  H     -561.134     103.721    -127.533
  H     -560.904     104.119    -125.056
  H     -568.736      97.682    -128.062
  H     -567.369      97.409    -126.973
  H     -561.775     102.585    -124.752
  P     -562.414     106.557    -127.344
  C     -564.480     107.656    -126.184
  O     -563.154     107.119    -126.026
  O     -562.886     107.558    -128.506
  O     -560.924     106.495    -127.258
  H     -562.108     107.960    -128.942
  H     -564.845     107.989    -125.235
  H     -565.129     106.897    -126.569
  H     -564.452     108.481    -126.865

 6  7  8  9  10  11  12  13  14  15  25  28  32  33  34  35 0
 6-311+G(2d,p)
 ****
 36  39  40 0
 6-311+G(2d,p)
 ****
 1  2  3  4  5  16  17  18  19  20  21  22  23  24 0
 3-21G
 ****
 26  27  29  30  31  37  38  41  42  43  44  45  46  47  48 0
 3-21G
 ****


