%nproc=1
%NoSave
%Mem=1900MB
#P OB98/GEN NMR

erre ene a

0 1
  C     -858.173      30.805    -238.222
  O     -857.089      30.600    -239.103
  H     -857.787      30.930    -237.212
  H     -858.844      29.939    -238.237
  H     -858.726      31.706    -238.497
  P     -857.393      30.346    -240.664
  C     -857.796      28.243    -242.106
  O     -857.744      28.780    -240.790
  C     -856.818      27.072    -242.236
  O     -855.460      27.550    -242.326
  C     -856.855      26.093    -241.059
  O     -857.944      25.185    -241.212
  C     -855.493      25.418    -241.229
  O     -855.570      24.462    -242.304
  C     -854.610      26.603    -241.624
  N     -851.324      26.226    -237.764
  C     -851.808      25.254    -238.620
  N     -851.382      23.983    -238.377
  N     -852.654      25.478    -239.594
  C     -853.028      26.775    -239.663
  C     -852.632      27.831    -238.880
  C     -851.647      27.574    -237.839
  O     -851.163      28.431    -237.077
  N     -853.302      28.987    -239.185
  C     -854.076      28.648    -240.191
  N     -853.959      27.304    -240.519
  O     -856.346      30.813    -241.621
  O     -858.803      31.055    -240.901
  H     -855.749      24.972    -243.124
  H     -858.682      31.986    -241.208
  H     -850.675      25.982    -237.024
  H     -854.746      29.310    -240.729
  H     -853.819      26.309    -242.320
  H     -855.183      24.881    -240.322
  H     -850.872      23.723    -237.555
  H     -856.887      26.620    -240.101
  H     -851.788      23.245    -238.931
  H     -857.041      26.558    -243.184
  H     -857.535      29.043    -242.811
  H     -858.813      27.900    -242.336
  P     -858.201      24.016    -240.131
  C     -857.440      21.557    -239.884
  O     -857.397      22.739    -240.671
  O     -859.655      23.771    -239.821
  O     -857.338      24.468    -238.844
  H     -857.808      25.093    -238.269
  H     -856.865      20.791    -240.360
  H     -858.454      21.232    -239.784
  H     -857.033      21.759    -238.915

 6  7  8  9  10  11  12  13  14  15  26  29  33  34 0
 6-311+G(2d,p)
 ****
 36  38  39  40  41 0
 6-311+G(2d,p)
 ****
 1  2  3  4  5  16  17  18  19  20  21  22  23  24  25 0
 3-21G
 ****
 27  28  30  31  32  35  37  42  43  44  45  46  47 0
 3-21G
 ****
 48  49 0
 3-21G
 ****


