%nproc=1
%NoSave
%Mem=1900MB
#P OB98/GEN NMR

erre ene a

0 1
  C      -67.703    -567.041      70.136
  O      -68.776    -566.963      71.078
  P      -70.257    -567.250      70.547
  C      -71.044    -564.787      70.243
  O      -70.725    -566.010      69.620
  C      -71.204    -563.643      69.229
  O      -72.364    -563.875      68.379
  C      -71.398    -562.260      69.861
  O      -70.856    -561.281      68.983
  C      -72.912    -562.123      69.874
  O      -73.317    -560.754      70.026
  C      -73.262    -562.764      68.528
  N      -77.686    -562.077      66.194
  C      -76.485    -561.418      66.041
  N      -76.441    -560.436      65.107
  N      -75.410    -561.674      66.746
  C      -75.600    -562.698      67.626
  C      -76.725    -563.424      67.876
  C      -77.911    -563.109      67.115
  O      -79.001    -563.638      67.217
  N      -76.534    -564.358      68.867
  C      -75.260    -564.198      69.197
  N      -74.650    -563.227      68.476
  O      -71.158    -567.072      71.881
  O      -70.447    -568.606      69.957
  H      -74.275    -560.763      70.236
  H      -71.474    -567.930      72.185
  H      -78.479    -561.816      65.643
  H      -74.744    -564.745      69.989
  H      -73.101    -562.084      67.691
  H      -73.338    -562.693      70.710
  H      -77.222    -560.214      64.488
  H      -70.959    -562.141      70.854
  H      -75.557    -559.960      64.953
  H      -70.319    -563.642      68.570
  H      -70.246    -564.507      70.971
  H      -71.948    -564.911      70.851
  P      -69.315    -560.913      69.183
  C      -69.554    -558.378      69.704
  O      -69.263    -559.684      70.200
  O      -68.908    -560.234      67.759
  O      -68.437    -562.067      69.510
  H      -67.949    -560.335      67.603
  H      -70.573    -558.090      70.017
  H      -69.465    -558.330      68.623
  H      -68.833    -557.675      70.165
  H      -66.778    -566.827      70.630
  H      -67.863    -566.329      69.354
  H      -67.665    -568.026      69.719

 3  4  5  6  7  8  9  10  11  12  23  26  30  31 0
 6-311+G(2d,p)
 ****
 33  35  36  37  38 0
 6-311+G(2d,p)
 ****
 1  2  13  14  15  16  17  18  19  20  21  22  24  25 0
 3-21G
 ****
 27  28  29  32  34  39  40  41  42  43  44  45  46  47  48  49 0
 3-21G
 ****


