%nproc=1
%NoSave
%Mem=1900MB
#P OB98/GEN NMR

erre ene a

0 1
  C      529.988     474.223     230.674
  O      528.616     474.499     230.964
  P      527.591     474.475     229.726
  C      527.009     476.965     230.124
  O      526.512     475.651     229.939
  C      526.130     478.002     229.402
  O      526.299     477.891     227.951
  C      524.638     477.855     229.690
  O      524.062     479.168     229.668
  C      524.132     477.083     228.489
  O      522.715     477.222     228.329
  C      524.988     477.697     227.384
  N      522.289     475.669     223.551
  C      521.934     476.477     224.580
  N      522.707     476.955     225.575
  C      523.989     476.554     225.411
  C      524.491     475.725     224.420
  C      523.580     475.277     223.453
  N      523.931     474.430     222.427
  N      525.845     475.500     224.617
  C      526.137     476.182     225.706
  N      525.063     476.857     226.207
  O      526.750     473.133     229.976
  O      528.261     474.457     228.393
  H      522.461     476.767     227.502
  H      527.001     472.454     229.325
  H      520.890     476.767     224.610
  H      527.113     476.210     226.183
  H      524.610     478.681     227.057
  H      524.361     476.022     228.609
  H      524.405     477.354     230.635
  H      526.473     479.003     229.685
  H      528.034     477.037     229.750
  H      523.201     474.123     221.792
  H      524.875     474.087     222.373
  H      527.068     477.178     231.191
  P      523.514     479.730     231.064
  C      520.961     479.296     230.937
  O      522.022     480.226     230.796
  O      524.339     481.089     231.276
  O      523.687     478.789     232.212
  H      524.399     481.299     232.220
  H      520.115     479.797     231.416
  H      521.251     478.428     231.535
  H      520.650     478.958     229.941
  H      530.560     474.270     231.577
  H      530.358     474.947     229.979
  H      530.073     473.245     230.249

 3  4  5  6  7  8  9  10  11  12  22  25  29  30  31  32 0
 6-311+G(2d,p)
 ****
 33  36  37 0
 6-311+G(2d,p)
 ****
 1  2  13  14  15  16  17  18  19  20  21  23  24  26 0
 3-21G
 ****
 27  28  34  35  38  39  40  41  42  43  44  45  46  47  48 0
 3-21G
 ****


