%nproc=1
%NoSave
%Mem=1900MB
#P OB98/GEN NMR

erre ene a

0 1
  C      -58.895    -203.367    -472.971
  O      -60.228    -203.730    -473.269
  H      -58.899    -202.703    -472.104
  H      -58.458    -202.833    -473.822
  H      -58.297    -204.253    -472.740
  P      -60.433    -204.848    -474.406
  C      -60.416    -206.532    -472.391
  O      -60.032    -206.242    -473.722
  C      -60.229    -208.018    -472.083
  O      -61.301    -208.763    -472.714
  C      -58.900    -208.590    -472.592
  O      -58.445    -209.572    -471.661
  C      -59.291    -209.272    -473.891
  O      -58.361    -210.285    -474.265
  C      -60.704    -209.768    -473.558
  N      -61.508    -210.017    -474.750
  C      -61.478    -211.316    -475.273
  O      -60.787    -212.184    -474.735
  N      -62.193    -211.594    -476.407
  C      -62.830    -210.641    -477.014
  N      -63.502    -210.972    -478.153
  C      -62.860    -209.245    -476.525
  C      -62.191    -209.009    -475.397
  O      -59.209    -204.543    -475.391
  O      -61.776    -204.825    -475.063
  H      -57.477    -209.875    -474.374
  H      -58.372    -204.385    -474.928
  H      -63.397    -208.486    -477.075
  H      -62.160    -208.020    -474.963
  H      -60.657    -210.703    -472.976
  H      -59.332    -208.536    -474.704
  H      -58.136    -207.819    -472.727
  H      -60.329    -208.167    -471.000
  H      -63.441    -211.934    -478.465
  H      -61.464    -206.258    -472.227
  H      -63.986    -210.304    -478.733
  H      -59.802    -205.923    -471.719
  P      -56.936    -209.512    -471.125
  C      -57.709    -208.753    -468.772
  O      -56.856    -208.497    -469.885
  O      -55.885    -209.330    -472.166
  O      -56.765    -210.939    -470.406
  H      -55.870    -211.271    -470.620
  H      -57.553    -208.004    -468.024
  H      -57.485    -209.717    -468.365
  H      -58.730    -208.730    -469.092

 6  7  8  9  10  11  12  13  14  15  16  26  30  31  32  33  35 0
 6-311+G(2d,p)
 ****
 37  38 0
 6-311+G(2d,p)
 ****
 1  2  3  4  5  17  18  19  20  21  22  23  24  25 0
 3-21G
 ****
 27  28  29  34  36  39  40  41  42  43  44  45  46 0
 3-21G
 ****


