%nproc=1
%NoSave
%Mem=1900MB
#P OB98/GEN NMR

erre ene a

0 1
  C       99.606      87.907    -294.150
  O       99.090      86.606    -294.357
  H      100.696      87.848    -294.104
  H       99.236      88.322    -293.210
  H       99.328      88.564    -294.982
  P       97.502      86.427    -294.460
  C       97.487      85.667    -291.991
  O       96.946      86.558    -292.959
  C       96.887      85.963    -290.618
  O       97.254      87.287    -290.185
  C       95.362      85.899    -290.582
  O       94.924      84.554    -290.477
  C       95.082      86.721    -289.336
  O       95.356      85.931    -288.161
  C       96.119      87.849    -289.470
  N       92.634      91.531    -289.654
  C       92.753      90.464    -288.782
  N       91.779      90.336    -287.856
  N       93.727      89.590    -288.831
  C       94.584      89.805    -289.854
  C       94.560      90.813    -290.791
  C       93.511      91.807    -290.694
  O       93.379      92.774    -291.437
  N       95.564      90.662    -291.718
  C       96.213      89.585    -291.320
  N       95.649      89.019    -290.199
  O       97.015      85.205    -295.180
  O       97.002      87.777    -295.158
  H       96.183      85.444    -288.337
  H       96.947      87.674    -296.125
  H       91.852      92.154    -289.577
  H       97.095      89.181    -291.799
  H       96.481      88.203    -288.497
  H       94.048      87.056    -289.264
  H       90.884      90.799    -287.954
  H       94.914      86.409    -291.442
  H       91.823      89.536    -287.240
  H       97.326      85.254    -289.902
  H       98.573      85.816    -291.975
  H       97.276      84.629    -292.267
  P       93.557      84.071    -291.168
  C       92.257      84.206    -288.942
  O       92.390      84.700    -290.267
  O       93.452      82.600    -291.388
  O       93.461      84.934    -292.511
  H       93.912      84.513    -293.285
  H       91.447      84.707    -288.454
  H       93.163      84.385    -288.402
  H       92.061      83.155    -288.971

 6  7  8  9  10  11  12  13  14  15  26  29  33  34 0
 6-311+G(2d,p)
 ****
 36  38  39  40  41 0
 6-311+G(2d,p)
 ****
 1  2  3  4  5  16  17  18  19  20  21  22  23  24  25 0
 3-21G
 ****
 27  28  30  31  32  35  37  42  43  44  45  46  47 0
 3-21G
 ****
 48  49 0
 3-21G
 ****


