%nproc=1
%NoSave
%Mem=1900MB
#P OB98/GEN NMR

erre ene a

0 1
  C        2.039       6.842      23.814
  O        2.832       6.998      22.639
  P        3.014       8.469      22.030
  C        1.505      10.371      21.155
  O        1.579       9.005      21.551
  C        0.517      10.543      19.989
  O        1.150      10.080      18.765
  C       -0.779       9.735      20.115
  O       -1.884      10.331      20.788
  C       -1.186       9.594      18.650
  O       -1.887      10.778      18.223
  C        0.145       9.493      17.913
  N        1.656       6.369      14.153
  C        1.379       7.691      14.173
  N        0.981       8.447      15.216
  C        0.891       7.709      16.333
  C        1.146       6.354      16.467
  C        1.543       5.670      15.307
  N        1.816       4.322      15.283
  N        0.937       5.945      17.767
  C        0.545       7.031      18.402
  N        0.515       8.126      17.583
  O        4.123       8.636      21.046
  O        3.283       9.354      23.342
  H       -1.206      11.455      18.051
  H        3.942      10.042      23.129
  H        1.487       8.210      13.224
  H        0.275       7.071      19.447
  H        0.146      10.057      16.973
  H       -1.866       8.752      18.486
  H       -0.581       8.745      20.542
  H        0.284      11.608      19.870
  H        2.495      10.718      20.852
  H        2.052       3.900      14.400
  H        1.680       3.774      16.121
  H        1.222      10.952      22.033
  P       -2.747       9.515      21.862
  C       -4.386       7.485      21.678
  O       -3.525       8.392      21.026
  O       -3.615      10.348      22.740
  O       -1.630       8.676      22.639
  H       -1.205       7.983      22.107
  H       -4.973       6.955      20.924
  H       -5.068       8.011      22.350
  H       -3.796       6.757      22.242
  H        2.015       5.809      24.093
  H        1.043       7.183      23.620
  H        2.464       7.417      24.610

 3  4  5  6  7  8  9  10  11  12  22  25  29  30  31  32 0
 6-311+G(2d,p)
 ****
 33  36  37 0
 6-311+G(2d,p)
 ****
 1  2  13  14  15  16  17  18  19  20  21  23  24  26 0
 3-21G
 ****
 27  28  34  35  38  39  40  41  42  43  44  45  46  47  48 0
 3-21G
 ****


