%nproc=1
%NoSave
%Mem=1900MB
#P OB98/GEN NMR

erre ene a

0 1
  C        5.356      50.611     -48.856
  O        6.590      49.955     -49.059
  H        5.543      51.565     -48.356
  H        4.712      50.001     -48.217
  H        4.859      50.805     -49.810
  P        6.561      48.628     -49.961
  C        5.858      46.158     -49.589
  O        6.029      47.445     -49.016
  C        6.383      45.084     -48.640
  O        7.822      45.170     -48.531
  C        5.842      45.186     -47.218
  O        4.561      44.584     -47.096
  C        6.895      44.393     -46.461
  O        6.680      42.982     -46.662
  C        8.186      44.838     -47.161
  N       11.745      46.359     -43.889
  C       11.361      45.082     -44.252
  N       12.011      44.064     -43.650
  N       10.420      44.824     -45.123
  C        9.848      45.940     -45.636
  C       10.143      47.256     -45.358
  C       11.190      47.526     -44.400
  O       11.587      48.637     -44.060
  N        9.357      48.110     -46.084
  C        8.574      47.315     -46.786
  N        8.827      45.988     -46.545
  O        8.113      48.276     -50.153
  O        5.869      48.763     -51.275
  H        5.922      42.731     -46.103
  H        8.243      47.907     -51.048
  H       12.468      46.502     -43.205
  H        7.815      47.648     -47.479
  H        8.934      44.039     -47.205
  H        6.865      44.572     -45.386
  H       12.710      44.193     -42.934
  H        5.839      46.222     -46.861
  H       11.770      43.120     -43.923
  H        6.145      44.105     -49.075
  H        6.411      46.108     -50.533
  H        4.795      45.996     -49.790
  P        3.428      45.401     -46.302
  C        3.320      46.405     -43.908
  O        3.922      45.451     -44.776
  O        2.204      44.371     -46.259
  O        3.045      46.705     -46.912
  H        1.364      44.855     -46.139
  H        3.749      46.319     -42.931
  H        2.267      46.222     -43.853
  H        3.492      47.391     -44.287

 6  7  8  9  10  11  12  13  14  15  26  29  33  34 0
 6-311+G(2d,p)
 ****
 36  38  39  40  41 0
 6-311+G(2d,p)
 ****
 1  2  3  4  5  16  17  18  19  20  21  22  23  24  25 0
 3-21G
 ****
 27  28  30  31  32  35  37  42  43  44  45  46  47 0
 3-21G
 ****
 48  49 0
 3-21G
 ****


