%nproc=1
%NoSave
%Mem=1900MB
#P OB98/GEN NMR

erre ene a

0 1
  C      559.620     355.914    1065.024
  O      559.735     354.514    1065.168
  H      560.078     356.407    1065.897
  H      558.571     356.210    1064.982
  H      560.148     356.250    1064.126
  P      559.145     353.570    1064.020
  C      557.003     353.508    1065.509
  O      557.956     352.755    1064.756
  C      556.276     352.596    1066.484
  O      555.452     351.622    1065.800
  C      557.188     351.766    1067.388
  O      557.819     352.532    1068.408
  C      556.180     350.780    1067.945
  O      555.375     351.418    1068.938
  C      555.354     350.450    1066.679
  N      555.810     349.246    1065.979
  C      555.782     348.052    1066.698
  O      555.363     348.033    1067.852
  N      556.250     346.901    1066.095
  C      556.715     346.949    1064.866
  N      557.149     345.786    1064.334
  C      556.771     348.194    1064.089
  C      556.327     349.303    1064.702
  O      560.137     352.727    1063.284
  O      558.311     354.560    1063.077
  H      555.925     351.493    1069.749
  H      557.928     354.025    1062.340
  H      557.207     348.190    1063.091
  H      556.355     350.256    1064.171
  H      554.285     350.319    1066.918
  H      556.634     349.897    1068.405
  H      557.926     351.218    1066.777
  H      555.585     353.221    1067.084
  H      557.088     344.939    1064.886
  H      556.301     353.966    1064.789
  H      557.595     345.727    1063.414
  H      557.507     354.299    1066.060
  P      559.436     352.619    1068.347
  C      559.901     350.359    1069.583
  O      559.974     351.771    1069.602
  O      559.722     354.148    1068.746
  O      560.038     352.243    1067.023
  H      559.884     354.691    1067.932
  H      560.302     349.969    1070.495
  H      560.466     349.984    1068.755
  H      558.880     350.056    1069.484

 6  7  8  9  10  11  12  13  14  15  16  26  30  31  32  33  35 0
 6-311+G(2d,p)
 ****
 37  38 0
 6-311+G(2d,p)
 ****
 1  2  3  4  5  17  18  19  20  21  22  23  24  25 0
 3-21G
 ****
 27  28  29  34  36  39  40  41  42  43  44  45  46 0
 3-21G
 ****


