%nproc=1
%NoSave
%Mem=1900MB
#P OB98/GEN NMR

erre ene a

0 1
  C      534.995    -891.780    -358.391
  O      534.183    -892.910    -358.542
  P      533.470    -893.230    -359.948
  C      535.137    -895.200    -360.134
  O      533.770    -894.780    -360.239
  C      535.233    -896.700    -359.875
  O      534.740    -897.020    -358.570
  C      534.424    -897.540    -360.842
  O      535.081    -897.640    -362.098
  C      534.313    -898.850    -360.078
  O      535.490    -899.650    -360.254
  C      534.206    -898.360    -358.612
  N      532.840    -898.410    -358.116
  C      532.640    -899.140    -356.940
  O      533.586    -899.730    -356.402
  N      531.369    -899.250    -356.424
  C      530.372    -898.680    -357.056
  N      529.136    -898.820    -356.500
  C      530.528    -897.920    -358.315
  C      531.784    -897.840    -358.787
  O      533.796    -892.290    -361.041
  O      531.903    -893.250    -359.560
  H      535.457    -900.000    -361.168
  H      531.563    -892.320    -359.406
  H      529.677    -897.490    -358.809
  H      531.987    -897.310    -359.707
  H      534.841    -898.970    -357.955
  H      533.466    -899.450    -360.405
  H      533.425    -897.100    -360.965
  H      536.290    -896.980    -359.933
  H      529.060    -899.360    -355.653
  H      535.591    -894.660    -359.293
  H      528.291    -898.440    -356.926
  H      535.677    -894.910    -361.048
  P      534.222    -897.670    -363.449
  C      534.018    -895.370    -364.583
  O      534.816    -896.520    -364.424
  O      532.740    -897.660    -363.272
  O      534.702    -899.020    -364.163
  H      533.902    -899.490    -364.511
  H      534.656    -894.560    -364.969
  H      533.589    -895.060    -363.632
  H      533.223    -895.570    -365.298
  H      535.374    -891.744    -357.391
  H      534.420    -890.899    -358.587
  H      535.812    -891.833    -359.080

 3  4  5  6  7  8  9  10  11  12  13  23  27  28  29  30  32 0
 6-311+G(2d,p)
 ****
 34  35 0
 6-311+G(2d,p)
 ****
 1  2  14  15  16  17  18  19  20  21  22  24  25  26 0
 3-21G
 ****
 31  33  36  37  38  39  40  41  42  43  44  45  46 0
 3-21G
 ****


