%nproc=1
%NoSave
%Mem=1900MB
#P OB98/GEN NMR

erre ene a

0 1
  C      107.708     266.434     123.714
  O      106.489     267.059     123.364
  P      106.347     268.628     123.669
  C      108.296     269.586     122.227
  O      106.885     269.410     122.382
  C      108.635     269.783     120.750
  O      108.595     268.522     120.059
  C      107.677     270.690     119.992
  O      107.909     272.056     120.313
  C      108.002     270.311     118.554
  O      109.211     270.967     118.134
  C      108.236     268.795     118.669
  N      105.681     266.503     114.866
  C      106.821     267.228     114.885
  N      107.425     267.825     115.933
  C      106.735     267.609     117.061
  C      105.555     266.907     117.200
  C      105.015     266.330     116.038
  N      103.854     265.593     116.027
  N      105.129     266.909     118.518
  C      106.056     267.593     119.159
  N      107.053     268.022     118.330
  O      107.486     268.889     124.770
  O      104.995     269.055     124.156
  H      109.417     270.644     117.233
  H      107.204     269.573     125.403
  H      107.312     267.349     113.920
  H      106.044     267.804     120.221
  H      109.058     268.446     118.040
  H      107.218     270.588     117.851
  H      106.638     270.435     120.221
  H      109.662     270.181     120.689
  H      108.810     268.688     122.594
  H      103.462     265.344     115.132
  H      103.287     265.584     116.872
  H      108.617     270.441     122.823
  P      106.627     273.026     120.405
  C      106.201     272.794     122.928
  O      106.695     273.625     121.893
  O      105.430     271.957     120.508
  O      106.516     274.020     119.306
  H      105.606     271.285     121.181
  H      106.352     273.291     123.878
  H      106.727     271.838     122.931
  H      105.122     272.625     122.783
  H      107.664     265.396     123.456
  H      107.870     266.533     124.767
  H      108.512     266.899     123.184

 3  4  5  6  7  8  9  10  11  12  22  25  29  30  31  32 0
 6-311+G(2d,p)
 ****
 33  36  37 0
 6-311+G(2d,p)
 ****
 1  2  13  14  15  16  17  18  19  20  21  23  24  26 0
 3-21G
 ****
 27  28  34  35  38  39  40  41  42  43  44  45  46  47  48 0
 3-21G
 ****


