%nproc=1
%NoSave
%Mem=1900MB
#P OB98/GEN NMR

erre ene a

0 1
  C     -282.740     -82.316      12.150
  O     -283.001     -82.652      10.802
  H     -281.769     -81.814      12.203
  H     -282.703     -83.213      12.773
  H     -283.506     -81.631      12.527
  P     -284.335     -83.471      10.466
  C     -286.027     -81.513      10.483
  O     -285.542     -82.672      11.154
  C     -287.553     -81.497      10.472
  O     -288.040     -80.272       9.887
  C     -288.181     -82.626       9.660
  O     -288.101     -83.849      10.359
  C     -289.586     -82.075       9.463
  O     -290.380     -82.257      10.644
  C     -289.292     -80.574       9.228
  N     -289.238     -80.203       7.815
  C     -288.732     -78.930       7.530
  O     -288.374     -78.187       8.446
  N     -288.663     -78.533       6.219
  C     -289.022     -79.342       5.274
  N     -288.923     -78.890       3.996
  C     -289.528     -80.704       5.530
  C     -289.620     -81.063       6.809
  O     -284.308     -84.936      10.775
  O     -284.568     -83.202       8.904
  H     -289.874     -81.855      11.377
  H     -284.172     -83.917       8.370
  H     -289.804     -81.352       4.709
  H     -289.982     -82.049       7.083
  H     -290.059     -79.955       9.712
  H     -290.113     -82.567       8.645
  H     -287.700     -82.699       8.679
  H     -287.899     -81.523      11.513
  H     -288.551     -77.952       3.869
  H     -285.644     -81.551       9.458
  H     -289.018     -79.479       3.185
  H     -285.645     -80.604      10.960
  P     -289.054     -85.087      10.000
  C     -287.567     -85.845       8.045
  O     -288.843     -85.357       8.431
  O     -290.475     -84.937      10.426
  O     -288.317     -86.339      10.668
  H     -288.474     -86.351      11.646
  H     -287.545     -85.986       6.985
  H     -287.380     -86.779       8.533
  H     -286.815     -85.138       8.327

 6  7  8  9  10  11  12  13  14  15  16  26  30  31  32  33  35 0
 6-311+G(2d,p)
 ****
 37  38 0
 6-311+G(2d,p)
 ****
 1  2  3  4  5  17  18  19  20  21  22  23  24  25 0
 3-21G
 ****
 27  28  29  34  36  39  40  41  42  43  44  45  46 0
 3-21G
 ****


