%nproc=1
%NoSave
%Mem=1900MB
#P OB98/GEN NMR

erre ene a

0 1
  C       27.665    -112.740     -65.482
  O       28.868    -111.980     -65.591
  P       30.244    -112.521     -66.193
  C       31.991    -114.385     -65.558
  O       30.791    -113.688     -65.244
  C       32.432    -115.279     -64.388
  O       33.085    -114.438     -63.383
  C       31.252    -115.976     -63.700
  O       31.514    -117.337     -63.363
  C       30.920    -115.030     -62.556
  O       30.167    -115.642     -61.517
  C       32.302    -114.503     -62.167
  N       30.374    -111.678     -58.376
  C       30.035    -112.955     -58.776
  N       29.035    -113.558     -58.094
  N       30.603    -113.577     -59.772
  C       31.527    -112.836     -60.421
  C       31.943    -111.555     -60.126
  C       31.340    -110.890     -58.991
  O       31.621    -109.770     -58.579
  N       32.913    -111.127     -61.002
  C       33.069    -112.140     -61.836
  N       32.253    -113.206     -61.519
  O       31.228    -111.481     -66.612
  O       29.789    -113.323     -67.518
  H       30.800    -116.048     -60.891
  H       30.523    -113.228     -68.159
  H       29.916    -111.253     -57.584
  H       33.758    -112.166     -62.666
  H       32.813    -115.171     -61.467
  H       30.302    -114.221     -62.966
  H       28.471    -113.089     -57.397
  H       30.390    -116.039     -64.375
  H       28.642    -114.394     -58.529
  H       33.170    -116.001     -64.758
  H       32.747    -113.615     -65.747
  H       31.870    -114.964     -66.472
  P       30.696    -118.644     -63.785
  C       28.973    -120.236     -62.758
  O       29.730    -119.058     -62.579
  O       31.783    -119.823     -63.799
  O       30.018    -118.547     -65.120
  H       31.852    -120.196     -64.703
  H       28.175    -120.265     -62.004
  H       29.612    -121.110     -62.623
  H       28.516    -120.264     -63.753
  H       26.899    -112.135     -65.044
  H       27.839    -113.597     -64.865
  H       27.355    -113.058     -66.455

 3  4  5  6  7  8  9  10  11  12  23  26  30  31 0
 6-311+G(2d,p)
 ****
 33  35  36  37  38 0
 6-311+G(2d,p)
 ****
 1  2  13  14  15  16  17  18  19  20  21  22  24  25 0
 3-21G
 ****
 27  28  29  32  34  39  40  41  42  43  44  45  46  47  48  49 0
 3-21G
 ****


