%nproc=1
%NoSave
%Mem=1900MB
#P OB98/GEN NMR

erre ene a

0 1
  C     -141.164     348.811    -134.174
  O     -142.415     348.994    -133.540
  P     -142.598     348.366    -132.069
  C     -143.376     346.078    -131.124
  O     -143.217     346.903    -132.270
  C     -143.321     344.593    -131.495
  O     -141.994     344.270    -131.966
  C     -143.657     343.646    -130.341
  O     -144.390     342.539    -130.872
  C     -142.298     343.157    -129.875
  O     -142.383     341.897    -129.218
  C     -141.518     343.142    -131.206
  N     -140.074     343.202    -130.998
  C     -139.473     342.083    -130.412
  O     -140.166     341.148    -130.022
  N     -138.112     342.086    -130.227
  C     -137.427     343.151    -130.511
  N     -136.077     343.096    -130.319
  C     -138.038     344.396    -131.016
  C     -139.353     344.342    -131.253
  O     -143.821     349.209    -131.474
  O     -141.381     348.447    -131.204
  H     -143.208     341.884    -128.686
  H     -143.732     349.315    -130.507
  H     -137.430     345.269    -131.199
  H     -139.884     345.200    -131.646
  H     -141.752     342.233    -131.772
  H     -141.857     343.884    -129.179
  H     -144.241     344.131    -129.548
  H     -144.011     344.427    -132.331
  H     -135.689     342.243    -129.957
  H     -144.345     346.277    -130.666
  H     -135.470     343.880    -130.509
  H     -142.598     346.322    -130.392
  P     -145.456     341.820    -129.918
  C     -145.292     340.193    -127.935
  O     -144.579     340.922    -128.917
  O     -146.066     340.715    -130.900
  O     -146.539     342.654    -129.308
  H     -146.786     340.229    -130.446
  H     -144.590     339.525    -127.421
  H     -146.074     339.595    -128.397
  H     -145.726     340.880    -127.203
  H     -141.181     349.276    -135.138
  H     -140.970     347.765    -134.286
  H     -140.394     349.254    -133.578

 3  4  5  6  7  8  9  10  11  12  13  21  23  27  28  29  30  32 0
 6-311+G(2d,p)
 ****
 34  35 0
 6-311+G(2d,p)
 ****
 1  2  14  15  16  17  18  19  20  22  24  25  26 0
 3-21G
 ****
 31  33  36  37  38  39  40  41  42  43  44  45  46 0
 3-21G
 ****


