%nproc=1
%NoSave
%Mem=1900MB
#P OB98/GEN NMR

erre ene a

0 1
  C     -511.458    -454.473     306.221
  O     -511.504    -453.148     305.742
  H     -511.342    -454.477     307.307
  H     -512.398    -454.974     305.966
  H     -510.629    -455.015     305.752
  P     -510.209    -452.233     306.002
  C     -511.221    -451.083     308.109
  O     -510.206    -451.929     307.581
  C     -510.785    -450.546     309.467
  O     -510.335    -451.629     310.307
  C     -509.634    -449.555     309.417
  O     -510.059    -448.246     309.081
  C     -509.138    -449.621     310.856
  O     -510.017    -448.860     311.705
  C     -509.270    -451.116     311.156
  N     -505.001    -453.051     313.224
  C     -506.013    -452.339     313.758
  N     -507.115    -451.852     313.131
  C     -507.108    -452.177     311.832
  C     -506.145    -452.909     311.151
  C     -505.044    -453.361     311.913
  N     -504.003    -454.081     311.375
  N     -506.461    -453.019     309.812
  C     -507.621    -452.400     309.700
  N     -508.047    -451.872     310.889
  O     -510.606    -450.823     305.366
  O     -508.922    -452.767     305.464
  H     -510.821    -449.394     311.830
  H     -509.803    -450.302     305.177
  H     -505.936    -452.109     314.818
  H     -508.190    -452.312     308.778
  H     -509.547    -451.312     312.190
  H     -508.129    -449.214     310.982
  H     -508.834    -449.901     308.745
  H     -511.663    -450.093     309.949
  H     -512.146    -451.657     308.222
  H     -503.189    -454.197     311.954
  H     -503.954    -454.185     310.369
  H     -511.392    -450.254     307.412
  P     -508.925    -447.198     308.635
  C     -508.675    -446.424     311.121
  O     -508.038    -446.931     309.942
  O     -509.751    -445.830     308.465
  O     -508.176    -447.567     307.399
  H     -509.308    -445.239     307.825
  H     -507.947    -446.303     311.896
  H     -509.428    -447.112     311.443
  H     -509.126    -445.478     310.904

 6  7  8  9  10  11  12  13  14  15  25  28  32  33  34  35 0
 6-311+G(2d,p)
 ****
 36  39  40 0
 6-311+G(2d,p)
 ****
 1  2  3  4  5  16  17  18  19  20  21  22  23  24 0
 3-21G
 ****
 26  27  29  30  31  37  38  41  42  43  44  45  46  47 0
 3-21G
 ****
 48 0
 3-21G
 ****


