%nproc=1
%NoSave
%Mem=1900MB
#P OB98/GEN NMR

erre ene a

0 1
  C     -541.466     739.301     283.318
  O     -541.326     740.656     282.886
  P     -542.670     741.533     282.827
  C     -544.369     742.515     284.526
  O     -543.236     741.686     284.318
  C     -544.640     742.679     286.022
  O     -544.706     741.393     286.693
  C     -543.559     743.458     286.757
  O     -543.661     744.846     286.480
  C     -543.848     743.071     288.201
  O     -544.953     743.831     288.710
  C     -544.262     741.595     288.060
  N     -542.405     738.336     291.544
  C     -543.507     739.125     291.537
  N     -543.932     739.964     290.573
  C     -543.096     739.943     289.527
  C     -541.929     739.192     289.385
  C     -541.588     738.367     290.459
  N     -540.459     737.571     290.472
  N     -541.335     739.440     288.164
  C     -542.109     740.339     287.585
  N     -543.185     740.668     288.359
  O     -543.715     740.554     282.114
  O     -542.513     742.815     282.075
  H     -545.081     743.581     289.645
  H     -543.899     740.868     281.204
  H     -544.129     739.075     292.427
  H     -541.927     740.783     286.608
  H     -545.109     741.336     288.717
  H     -542.998     743.236     288.875
  H     -542.558     743.092     286.466
  H     -545.610     743.183     286.143
  H     -545.248     742.086     284.030
  H     -540.244     737.071     291.318
  H     -539.806     737.647     289.707
  H     -544.190     743.486     284.047
  P     -542.531     745.507     285.549
  C     -541.990     745.204     283.052
  O     -542.990     745.098     284.057
  O     -541.290     744.545     285.815
  O     -542.305     746.962     285.780
  H     -541.546     743.604     285.783
  H     -542.419     744.861     282.104
  H     -541.131     744.578     283.307
  H     -541.677     746.247     282.946
  H     -540.508     738.825     283.315
  H     -542.125     738.781     282.654
  H     -541.870     739.282     284.308

 3  4  5  6  7  8  9  10  11  12  22  25  29  30  31  32 0
 6-311+G(2d,p)
 ****
 33  36  37 0
 6-311+G(2d,p)
 ****
 1  2  13  14  15  16  17  18  19  20  21  23  24  26 0
 3-21G
 ****
 27  28  34  35  38  39  40  41  42  43  44  45  46  47  48 0
 3-21G
 ****


