%nproc=1
%NoSave
%Mem=1900MB
#P OB98/GEN NMR

erre ene a

0 1
  C      997.151    -590.445     447.829
  O      998.089    -589.362     447.795
  P      999.405    -589.467     448.724
  C     1001.059    -589.025     446.784
  O     1000.653    -589.931     447.809
  C     1002.011    -589.712     445.780
  O     1003.039    -590.473     446.490
  C     1001.254    -590.712     444.884
  O     1001.865    -590.761     443.571
  C     1001.538    -592.047     445.570
  O     1001.349    -593.153     444.652
  C     1002.959    -591.843     446.055
  N     1003.788    -596.724     447.364
  C     1003.501    -596.162     446.201
  N     1003.317    -594.846     445.900
  C     1003.476    -594.103     446.998
  C     1003.786    -594.537     448.284
  C     1003.948    -595.911     448.449
  N     1004.211    -596.503     449.681
  N     1003.853    -593.474     449.170
  C     1003.560    -592.405     448.432
  N     1003.342    -592.745     447.113
  O      999.257    -590.212     449.983
  O      999.756    -587.922     448.991
  H     1001.648    -593.947     445.107
  H     1000.005    -587.828     449.932
  H     1003.384    -596.841     445.349
  H     1003.469    -591.403     448.820
  H     1003.684    -591.963     445.230
  H     1000.841    -592.173     446.402
  H     1000.187    -590.516     444.760
  H     1002.516    -588.955     445.188
  H     1001.574    -588.182     447.234
  H     1004.187    -597.497     449.731
  H     1004.171    -595.953     450.505
  H     1000.175    -588.604     446.287
  P     1000.893    -590.444     442.341
  C     1002.324    -588.586     441.164
  O     1001.173    -588.928     441.939
  O      999.457    -590.812     442.600
  O     1001.573    -591.297     441.162
  H     1002.525    -591.149     441.054
  H     1002.251    -587.524     440.888
  H     1002.344    -589.174     440.258
  H     1003.219    -588.755     441.752
  H      996.338    -590.233     447.167
  H      996.778    -590.563     448.825
  H      997.637    -591.347     447.521

 3  4  5  6  7  8  9  10  11  12  22  25  29  30  31  32 0
 6-311+G(2d,p)
 ****
 33  36  37 0
 6-311+G(2d,p)
 ****
 1  2  13  14  15  16  17  18  19  20  21  23  24  26 0
 3-21G
 ****
 27  28  34  35  38  39  40  41  42  43  44  45  46  47  48 0
 3-21G
 ****


