%nproc=1
%NoSave
%Mem=1900MB
#P OB98/GEN NMR

erre ene a

0 1
  C     -230.487    -608.197      13.102
  O     -230.783    -606.847      13.408
  P     -231.730    -606.000      12.436
  C     -233.858    -605.567      13.804
  O     -233.252    -606.359      12.793
  C     -234.753    -604.496      13.171
  O     -233.959    -603.388      12.712
  C     -235.524    -604.978      11.951
  O     -236.628    -605.776      12.333
  C     -235.891    -603.651      11.291
  O     -237.048    -603.080      11.918
  C     -234.645    -602.800      11.587
  N     -232.970    -599.747       7.860
  C     -233.982    -599.615       8.743
  N     -234.394    -600.497       9.683
  C     -233.647    -601.611       9.639
  C     -232.610    -601.905       8.770
  C     -232.252    -600.894       7.859
  N     -231.178    -600.990       6.999
  N     -232.110    -603.168       9.017
  C     -232.852    -603.635      10.007
  N     -233.747    -602.705      10.456
  O     -231.383    -606.074      10.984
  O     -231.579    -604.498      12.975
  H     -237.818    -603.624      11.654
  H     -231.219    -603.936      12.268
  H     -234.536    -598.684       8.692
  H     -232.760    -604.625      10.445
  H     -234.913    -601.776      11.875
  H     -236.115    -603.760      10.224
  H     -234.855    -605.539      11.283
  H     -235.434    -604.127      13.941
  H     -233.069    -605.087      14.390
  H     -230.925    -600.157       6.492
  H     -230.466    -601.688       7.189
  H     -234.449    -606.205      14.463
  P     -237.147    -606.934      11.361
  C     -235.758    -608.440      12.897
  O     -236.187    -608.201      11.571
  O     -237.365    -606.531       9.935
  O     -238.515    -607.410      12.039
  H     -239.141    -607.704      11.345
  H     -234.958    -607.738      13.163
  H     -235.376    -609.459      12.961
  H     -236.591    -608.327      13.603
  H     -229.845    -608.601      13.857
  H     -229.997    -608.248      12.152
  H     -231.395    -608.762      13.066

 3  4  5  6  7  8  9  10  11  12  22  25  29  30  31  32 0
 6-311+G(2d,p)
 ****
 33  36  37 0
 6-311+G(2d,p)
 ****
 1  2  13  14  15  16  17  18  19  20  21  23  24  26 0
 3-21G
 ****
 27  28  34  35  38  39  40  41  42  43  44  45  46  47  48 0
 3-21G
 ****


