%nproc=1
%NoSave
%Mem=1900MB
#P OB98/GEN NMR

erre ene a

0 1
  C      301.873      49.438      51.001
  O      302.122      49.677      49.627
  P      301.486      50.994      48.968
  C      303.221      50.697      47.063
  O      301.871      50.971      47.416
  C      303.311      49.892      45.764
  O      302.828      48.544      46.015
  C      302.499      50.472      44.610
  O      303.240      50.259      43.399
  C      301.252      49.608      44.581
  O      300.642      49.607      43.289
  C      301.819      48.255      45.032
  N      300.785      47.377      45.579
  C      299.990      46.672      44.665
  O      300.139      46.872      43.451
  N      299.031      45.818      45.127
  C      298.801      45.745      46.407
  N      297.838      44.884      46.828
  C      299.523      46.566      47.409
  C      300.502      47.331      46.923
  O      302.401      52.170      49.562
  O      300.033      51.202      49.280
  H      300.154      50.452      43.178
  H      301.881      52.990      49.685
  H      299.260      46.497      48.454
  H      301.103      47.952      47.594
  H      302.297      47.735      44.197
  H      300.519      49.989      45.305
  H      302.290      51.544      44.726
  H      304.372      49.809      45.487
  H      297.348      44.341      46.123
  H      303.688      50.116      47.863
  H      297.591      44.761      47.801
  H      303.762      51.646      46.965
  P      303.353      51.478      42.361
  C      305.552      50.212      41.948
  O      304.592      51.110      41.420
  O      303.981      52.628      43.298
  O      302.104      51.961      41.697
  H      304.048      53.462      42.789
  H      306.257      49.950      41.165
  H      305.067      49.315      42.323
  H      306.106      50.703      42.779
  H      302.356      48.531      51.299
  H      300.819      49.350      51.162
  H      302.256      50.253      51.580

 3  4  5  6  7  8  9  10  11  12  13  21  23  27  28  29  30  32 0
 6-311+G(2d,p)
 ****
 34  35 0
 6-311+G(2d,p)
 ****
 1  2  14  15  16  17  18  19  20  22  24  25  26 0
 3-21G
 ****
 31  33  36  37  38  39  40  41  42  43  44  45  46 0
 3-21G
 ****


