%nproc=1
%NoSave
%Mem=1900MB
#P OB98/GEN NMR

erre ene a

0 1
  C     -267.075     678.025    -399.720
  O     -267.354     677.262    -400.872
  H     -266.337     678.791    -399.980
  H     -266.644     677.391    -398.940
  H     -267.974     678.516    -399.347
  P     -268.373     676.026    -400.770
  C     -269.698     676.256    -402.960
  O     -268.641     675.568    -402.292
  C     -269.861     675.755    -404.399
  O     -268.646     676.025    -405.153
  C     -270.133     674.248    -404.495
  O     -271.216     674.003    -405.400
  C     -268.844     673.679    -405.083
  O     -269.034     672.437    -405.766
  C     -268.395     674.857    -405.960
  N     -266.993     674.750    -406.350
  C     -266.698     673.802    -407.336
  O     -267.608     673.113    -407.824
  N     -265.398     673.603    -407.703
  C     -264.451     674.255    -407.098
  N     -263.176     673.991    -407.486
  C     -264.710     675.252    -406.033
  C     -265.988     675.443    -405.717
  O     -269.603     676.297    -399.966
  O     -267.501     674.810    -400.194
  H     -269.722     672.571    -406.462
  H     -268.100     674.153    -399.781
  H     -263.897     675.765    -405.567
  H     -266.284     676.149    -404.943
  H     -269.011     674.933    -406.857
  H     -268.123     673.508    -404.279
  H     -270.362     673.786    -403.531
  H     -270.656     676.334    -404.882
  H     -263.046     673.301    -408.218
  H     -269.473     677.333    -402.955
  H     -262.362     674.430    -407.077
  H     -270.628     676.079    -402.408
  P     -272.337     672.967    -404.898
  C     -274.515     673.994    -405.888
  O     -273.530     672.968    -405.979
  O     -272.970     673.686    -403.620
  O     -271.783     671.620    -404.557
  H     -272.716     673.207    -402.811
  H     -275.237     673.865    -406.667
  H     -274.045     674.950    -405.992
  H     -275.002     673.938    -404.937

 6  7  8  9  10  11  12  13  14  15  16  26  30  31  32  33  35 0
 6-311+G(2d,p)
 ****
 37  38 0
 6-311+G(2d,p)
 ****
 1  2  3  4  5  17  18  19  20  21  22  23  24  25 0
 3-21G
 ****
 27  28  29  34  36  39  40  41  42  43  44  45  46 0
 3-21G
 ****


