%nproc=1
%NoSave
%Mem=1900MB
#P OB98/GEN NMR

erre ene a

0 1
  C      -87.013    -110.553    -688.066
  O      -85.845    -111.348    -688.095
  P      -85.552    -112.380    -686.895
  C      -85.394    -114.531    -688.300
  O      -84.690    -113.606    -687.476
  C      -84.597    -115.831    -688.457
  O      -83.345    -115.591    -689.150
  C      -84.199    -116.461    -687.129
  O      -85.296    -117.074    -686.464
  C      -83.107    -117.430    -687.592
  O      -83.684    -118.627    -688.118
  C      -82.427    -116.609    -688.712
  N      -81.142    -116.040    -688.276
  C      -80.013    -116.866    -688.407
  O      -80.149    -118.038    -688.786
  N      -78.792    -116.345    -688.111
  C      -78.702    -115.160    -687.601
  N      -77.444    -114.674    -687.369
  C      -79.875    -114.311    -687.294
  C      -81.055    -114.810    -687.683
  O      -86.752    -112.781    -686.094
  O      -84.495    -111.602    -685.979
  H      -84.792    -111.636    -685.036
  H      -84.227    -118.366    -688.893
  H      -79.754    -113.353    -686.809
  H      -81.982    -114.253    -687.525
  H      -82.256    -117.264    -689.586
  H      -82.435    -117.721    -686.771
  H      -83.749    -115.699    -686.461
  H      -85.193    -116.537    -689.052
  H      -76.666    -115.271    -687.595
  H      -85.553    -114.081    -689.295
  H      -77.252    -113.676    -687.286
  H      -86.370    -114.736    -687.860
  P      -85.274    -117.077    -684.867
  C      -87.718    -116.185    -684.761
  O      -86.800    -117.194    -684.370
  O      -84.880    -115.554    -684.495
  O      -84.321    -118.054    -684.260
  H      -84.304    -115.558    -683.698
  H      -88.736    -116.596    -684.669
  H      -87.561    -115.898    -685.813
  H      -87.613    -115.316    -684.121
  H      -87.043    -109.932    -688.937
  H      -87.005    -109.939    -687.190
  H      -87.875    -111.186    -688.050

 3  4  5  6  7  8  9  10  11  12  13  24  27  28  29  30  32 0
 6-311+G(2d,p)
 ****
 34  35 0
 6-311+G(2d,p)
 ****
 1  2  14  15  16  17  18  19  20  21  22  23  25  26 0
 3-21G
 ****
 31  33  36  37  38  39  40  41  42  43  44  45  46 0
 3-21G
 ****


