%nproc=1
%NoSave
%Mem=1900MB
#P OB98/GEN NMR

erre ene a

0 1
  C      491.773    -193.980    -469.723
  O      491.382    -194.817    -470.815
  P      490.877    -194.100    -472.163
  C      491.215    -196.337    -473.488
  O      490.342    -195.277    -473.115
  C      490.411    -197.533    -474.030
  O      489.764    -198.232    -472.920
  C      489.317    -197.162    -475.044
  O      489.294    -198.213    -476.029
  C      488.061    -197.185    -474.201
  O      486.887    -197.369    -475.002
  C      488.373    -198.353    -473.250
  N      487.534    -198.344    -472.048
  C      486.209    -198.742    -472.203
  O      485.702    -199.012    -473.305
  N      485.454    -198.775    -471.061
  C      485.861    -198.373    -469.825
  O      485.140    -198.423    -468.833
  C      487.236    -197.860    -469.742
  C      487.991    -197.845    -470.837
  O      492.266    -193.658    -472.817
  O      489.910    -192.989    -471.903
  H      492.988    -194.301    -472.684
  H      486.118    -197.492    -474.398
  H      484.493    -199.089    -471.147
  H      487.573    -197.461    -468.788
  H      489.001    -197.451    -470.829
  H      488.227    -199.309    -473.761
  H      487.955    -196.250    -473.641
  H      489.502    -196.195    -475.530
  H      491.137    -198.235    -474.487
  H      491.799    -196.668    -472.619
  H      491.934    -195.966    -474.224
  P      489.588    -197.811    -477.559
  C      490.657    -200.107    -478.199
  O      489.624    -199.171    -478.389
  O      491.134    -197.399    -477.460
  O      488.721    -196.713    -478.092
  H      491.666    -198.045    -476.966
  H      490.387    -201.047    -478.672
  H      490.850    -200.295    -477.132
  H      491.583    -199.738    -478.667
  H      492.084    -194.589    -468.900
  H      490.944    -193.373    -469.424
  H      492.584    -193.352    -470.028

 3  4  5  6  7  8  9  10  11  12  13  24  28  29  30  31  32 0
 6-311+G(2d,p)
 ****
 33  34 0
 6-311+G(2d,p)
 ****
 1  2  14  15  16  17  18  19  20  21  22  23  25  26  27 0
 3-21G
 ****
 35  36  37  38  39  40  41  42  43  44  45 0
 3-21G
 ****


