%nproc=1
%NoSave
%Mem=1900MB
#P OB98/GEN NMR

erre ene a

0 1
  C      119.767     803.064     -34.669
  O      119.645     803.900     -35.805
  H      120.399     803.564     -33.932
  H      120.240     802.117     -34.949
  H      118.782     802.876     -34.228
  P      118.769     803.330     -37.020
  C      120.223     804.632     -38.730
  O      118.923     804.389     -38.219
  C      120.270     805.976     -39.444
  O      119.452     805.954     -40.637
  C      119.793     807.158     -38.614
  O      120.827     807.641     -37.772
  C      119.416     808.154     -39.698
  O      120.571     808.849     -40.210
  C      118.805     807.249     -40.772
  N      114.361     809.013     -42.400
  C      115.638     809.360     -42.762
  N      115.758     810.384     -43.648
  N      116.714     808.786     -42.281
  C      116.442     807.817     -41.379
  C      115.216     807.362     -40.954
  C      114.037     807.988     -41.510
  O      112.872     807.675     -41.282
  N      115.352     806.350     -40.042
  C      116.653     806.209     -39.894
  N      117.367     807.096     -40.671
  O      117.258     803.544     -36.533
  O      119.029     801.903     -37.390
  H      120.342     809.286     -41.049
  H      116.699     802.843     -36.915
  H      113.572     809.481     -42.809
  H      117.133     805.496     -39.236
  H      119.014     807.605     -41.791
  H      118.742     808.925     -39.323
  H      115.017     811.056     -43.777
  H      118.899     806.893     -38.042
  H      116.700     810.658     -43.908
  H      121.308     806.138     -39.780
  H      120.488     803.835     -39.432
  H      120.942     804.624     -37.897
  P      120.483     807.817     -36.202
  C      120.866     810.344     -35.709
  O      121.400     809.027     -35.675
  O      121.161     806.533     -35.531
  O      119.027     807.915     -35.886
  H      120.794     806.388     -34.639
  H      121.591     811.033     -35.328
  H      119.983     810.386     -35.106
  H      120.622     810.604     -36.718

 6  7  8  9  10  11  12  13  14  15  26  29  33  34 0
 6-311+G(2d,p)
 ****
 36  38  39  40  41 0
 6-311+G(2d,p)
 ****
 1  2  3  4  5  16  17  18  19  20  21  22  23  24  25 0
 3-21G
 ****
 27  28  30  31  32  35  37  42  43  44  45  46  47 0
 3-21G
 ****
 48  49 0
 3-21G
 ****


