%nproc=1
%NoSave
%Mem=1900MB
#P OB98/GEN NMR

erre ene a

0 1
  C      186.848    -285.927     176.145
  O      186.792    -286.760     177.292
  H      185.992    -285.246     176.166
  H      186.786    -286.540     175.238
  H      187.770    -285.345     176.146
  P      187.984    -287.817     177.476
  C      187.307    -287.889     179.990
  O      187.659    -288.626     178.826
  C      187.678    -288.677     181.240
  O      186.714    -289.741     181.437
  C      189.041    -289.366     181.169
  O      190.103    -288.471     181.423
  C      188.879    -290.439     182.238
  O      189.155    -289.925     183.548
  C      187.401    -290.821     182.116
  N      185.071    -295.354     182.231
  C      185.027    -294.292     183.075
  N      185.669    -293.111     182.952
  C      186.404    -293.083     181.833
  C      186.554    -294.084     180.890
  C      185.842    -295.274     181.119
  N      185.920    -296.372     180.288
  N      187.437    -293.693     179.899
  C      187.810    -292.472     180.234
  N      187.206    -292.059     181.387
  O      189.224    -286.891     177.879
  O      188.279    -288.663     176.282
  H      189.306    -290.706     184.128
  H      189.746    -286.673     177.083
  H      184.402    -294.421     183.952
  H      188.506    -291.856     179.676
  H      186.920    -290.940     183.101
  H      189.574    -291.269     182.065
  H      189.161    -289.849     180.193
  H      187.626    -288.004     182.105
  H      186.227    -287.702     179.982
  H      187.837    -286.922     179.972
  H      185.396    -297.197     180.525
  H      186.576    -296.354     179.507
  P      191.497    -288.695     180.662
  C      192.150    -286.328     179.795
  O      192.342    -287.338     180.779
  O      191.070    -288.742     179.117
  O      192.235    -289.920     181.073
  H      191.020    -289.668     178.805
  H      192.782    -285.493     180.013
  H      191.127    -286.013     179.802
  H      192.396    -286.719     178.830

 6  7  8  9  10  11  12  13  14  15  25  28  32  33  34  35 0
 6-311+G(2d,p)
 ****
 36  37  40 0
 6-311+G(2d,p)
 ****
 1  2  3  4  5  16  17  18  19  20  21  22  23  24 0
 3-21G
 ****
 26  27  29  30  31  38  39 41  42  43  44  45  46  47  48 0
 3-21G
 ****


