%nproc=1
%NoSave
%Mem=1900MB
#P OB98/GEN NMR

erre ene a

0 1
  C      -32.435    -832.672    -219.346
  O      -33.032    -833.419    -220.404
  P      -33.648    -832.617    -221.649
  C      -31.634    -832.746    -223.370
  O      -32.949    -833.102    -223.002
  C      -31.229    -833.520    -224.630
  O      -31.121    -834.928    -224.334
  C      -32.232    -833.381    -225.772
  O      -31.972    -832.222    -226.566
  C      -32.039    -834.682    -226.534
  O      -30.838    -834.628    -227.331
  C      -31.859    -835.678    -225.357
  N      -33.066    -836.261    -224.742
  C      -33.843    -837.166    -225.460
  O      -33.597    -837.531    -226.615
  N      -34.943    -837.675    -224.807
  C      -35.238    -837.509    -223.488
  O      -36.204    -838.031    -222.942
  C      -34.299    -836.676    -222.737
  C      -33.289    -836.084    -223.381
  O      -33.101    -831.136    -221.453
  O      -35.147    -832.664    -221.729
  H      -30.110    -834.417    -226.727
  H      -33.841    -830.518    -221.284
  H      -35.551    -838.272    -225.341
  H      -34.474    -836.549    -221.674
  H      -32.590    -835.461    -222.826
  H      -31.215    -836.524    -225.666
  H      -32.857    -834.873    -227.215
  H      -33.250    -833.359    -225.391
  H      -30.234    -833.177    -224.957
  H      -30.931    -832.948    -222.564
  H      -31.595    -831.666    -223.559
  P      -33.106    -831.646    -227.536
  C      -33.866    -829.928    -225.791
  O      -33.321    -830.130    -227.083
  O      -34.338    -832.476    -227.659
  O      -32.355    -831.486    -228.943
  H      -32.507    -832.265    -229.523
  H      -33.814    -828.871    -225.539
  H      -33.294    -830.504    -225.042
  H      -34.912    -830.253    -225.775
  H      -32.073    -833.343    -218.595
  H      -33.164    -832.016    -218.917
  H      -31.620    -832.096    -219.732

 3  4  5  6  7  8  9  10  11  12  13  23  28  29  30  31  32 0
 6-311+G(2d,p)
 ****
 33  34 0
 6-311+G(2d,p)
 ****
 1  2  14  15  16  17  18  19  20  21  22  24  25  26  27 0
 3-21G
 ****
 35  36  37  38  39  40  41  42  43  44  45 0
 3-21G
 ****


