%nproc=1
%NoSave
%Mem=1900MB
#P OB98/GEN NMR

erre ene a

0 1
  C     -553.501     673.898     494.669
  O     -552.734     674.350     495.777
  P     -552.204     673.307     496.878
  C     -550.036     673.066     498.253
  O     -550.802     673.904     497.387
  C     -548.563     673.500     498.236
  O     -547.910     673.035     497.025
  C     -548.341     675.000     498.289
  O     -548.543     675.499     499.597
  C     -546.916     675.111     497.783
  O     -545.972     674.868     498.823
  C     -546.861     673.975     496.723
  N     -546.969     674.488     495.354
  C     -545.827     675.115     494.840
  O     -544.811     675.223     495.543
  N     -545.864     675.614     493.563
  C     -546.961     675.544     492.880
  N     -546.943     676.071     491.621
  C     -548.202     674.932     493.393
  C     -548.124     674.432     494.626
  O     -552.181     671.878     496.447
  O     -553.177     673.581     498.115
  H     -545.077     674.963     498.423
  H     -554.080     673.198     497.967
  H     -549.090     674.885     492.788
  H     -549.001     673.959     495.095
  H     -545.911     673.432     496.796
  H     -546.697     676.108     497.361
  H     -549.016     675.508     497.575
  H     -548.062     673.015     499.097
  H     -546.084     676.508     491.317
  H     -550.111     672.039     497.889
  H     -547.754     676.096     491.016
  H     -550.444     673.123     499.260
  P     -548.849     677.052     499.829
  C     -549.444     678.470     501.901
  O     -549.570     677.190     501.256
  O     -549.539     677.752     498.693
  O     -547.404     677.684     500.092
  H     -547.333     678.515     499.575
  H     -550.226     678.534     502.676
  H     -549.543     679.271     501.198
  H     -548.460     678.513     502.369
  H     -553.760     674.732     494.051
  H     -554.393     673.425     495.022
  H     -552.927     673.197     494.100

 3  4  5  6  7  8  9  10  11  12  13  23  27  28  29  30  32 0
 6-311+G(2d,p)
 ****
 34  35 0
 6-311+G(2d,p)
 ****
 1  2  14  15  16  17  18  19  20  21  22  24  25  26 0
 3-21G
 ****
 31  33  36  37  38  39  40  41  42  43  44  45  46 0
 3-21G
 ****


