%nproc=1
%NoSave
%Mem=1900MB
#P OB98/GEN NMR

erre ene a

0 1
  C       99.936     -59.793       3.043
  O       99.713     -58.450       3.426
  H      100.973     -60.056       3.269
  H       99.767     -59.915       1.969
  H       99.271     -60.459       3.600
  P       98.268     -57.841       3.075
  C       99.558     -55.990       1.763
  O       98.537     -56.977       1.747
  C       99.648     -55.321       0.395
  O       99.995     -56.286      -0.622
  C       98.343     -54.686      -0.075
  O       98.090     -53.429       0.531
  C       98.625     -54.552      -1.560
  O       99.516     -53.442      -1.783
  C       99.329     -55.898      -1.854
  N       98.405     -56.945      -2.293
  C       97.962     -56.876      -3.619
  O       98.334     -55.964      -4.357
  N       97.075     -57.826      -4.070
  C       96.675     -58.768      -3.273
  N       95.787     -59.673      -3.769
  C       97.130     -58.888      -1.876
  C       97.983     -57.955      -1.457
  O       98.056     -56.710       4.188
  O       97.149     -58.823       2.974
  H       99.004     -52.630      -1.614
  H       97.243     -56.187       3.984
  H       96.759     -59.685      -1.246
  H       98.358     -57.978      -0.440
  H      100.107     -55.773      -2.618
  H       97.727     -54.368      -2.153
  H       97.493     -55.364       0.060
  H      100.461     -54.581       0.433
  H       95.446     -59.529      -4.710
  H      100.506     -56.477       2.010
  H       95.287     -60.325      -3.178
  H       99.337     -55.233       2.523
  P       96.580     -53.103       0.969
  C       96.425     -51.426      -1.007
  O       95.831     -52.520      -0.325
  O       96.745     -51.819       1.907
  O       95.871     -54.222       1.669
  H       96.135     -51.854       2.668
  H       95.814     -51.152      -1.842
  H       97.397     -51.707      -1.354
  H       96.511     -50.594      -0.340

 6  7  8  9  10  11  12  13  14  15  16  26  30  31  32  33  35 0
 6-311+G(2d,p)
 ****
 37  38 0
 6-311+G(2d,p)
 ****
 1  2  3  4  5  17  18  19  20  21  22  23  24  25 0
 3-21G
 ****
 27  28  29  34  36  39  40  41  42  43  44  45  46 0
 3-21G
 ****


