%nproc=1
%NoSave
%Mem=1900MB
#P OB98/GEN NMR

erre ene a

0 1
  C      370.847    -181.336    -406.392
  O      369.780    -181.734    -407.230
  H      371.048    -182.134    -405.669
  H      370.570    -180.431    -405.843
  H      371.753    -181.153    -406.982
  P      369.391    -180.749    -408.438
  C      369.507    -182.612    -410.259
  O      368.702    -181.672    -409.564
  C      368.789    -183.072    -411.534
  O      367.711    -183.977    -411.147
  C      368.162    -181.917    -412.326
  O      368.279    -182.193    -413.725
  C      366.698    -181.970    -411.912
  O      365.819    -181.374    -412.864
  C      366.489    -183.477    -411.743
  N      365.344    -183.793    -410.900
  C      364.115    -183.997    -411.526
  O      363.947    -183.994    -412.755
  N      363.048    -184.205    -410.699
  C      363.074    -184.199    -409.322
  O      362.078    -184.359    -408.636
  C      364.399    -183.980    -408.719
  C      365.452    -183.788    -409.520
  O      370.811    -180.379    -409.082
  O      368.598    -179.541    -408.056
  H      371.177    -179.581    -408.658
  H      365.858    -181.913    -413.679
  H      362.150    -184.341    -411.144
  H      364.458    -183.962    -407.640
  H      366.443    -183.599    -409.098
  H      366.382    -183.956    -412.719
  H      366.562    -181.451    -410.956
  H      368.616    -180.949    -412.100
  H      369.488    -183.641    -412.146
  H      369.686    -183.480    -409.611
  H      370.476    -182.154    -410.510
  P      369.048    -181.115    -414.637
  C      370.193    -182.942    -416.127
  O      369.305    -181.835    -416.049
  O      370.486    -181.087    -413.936
  O      368.343    -179.797    -414.700
  H      370.783    -181.959    -413.610
  H      370.240    -183.291    -417.137
  H      369.838    -183.729    -415.495
  H      371.169    -182.640    -415.808

 6  7  8  9  10  11  12  13  14  15  16  27  31  32  33  34  35 0
 6-311+G(2d,p)
 ****
 36  37 0
 6-311+G(2d,p)
 ****
 1  2  3  4  5  17  18  19  20  21  22  23  24  25 0
 3-21G
 ****
 26  28  29  30  38  39  40  41  42  43  44  45 0
 3-21G
 ****


