%nproc=1
%NoSave
%Mem=1900MB
#P OB98/GEN NMR

erre ene a

0 1
  C      -28.878     -87.488     -98.191
  O      -30.041     -88.156     -98.621
  P      -31.025     -88.847     -97.559
  C      -32.585     -89.379     -99.538
  O      -31.916     -89.892     -98.390
  C      -33.158     -90.521    -100.370
  O      -32.103     -91.245    -101.060
  C      -33.869     -91.588     -99.551
  O      -35.062     -91.215     -98.894
  C      -33.964     -92.723    -100.559
  O      -35.059     -92.534    -101.455
  C      -32.617     -92.577    -101.310
  N      -31.659     -93.610    -100.917
  C      -31.999     -94.918    -101.248
  O      -33.038     -95.222    -101.837
  N      -31.116     -95.883    -100.851
  C      -29.973     -95.681    -100.131
  O      -29.252     -96.601     -99.768
  C      -29.676     -94.280     -99.794
  C      -30.517     -93.322    -100.196
  O      -31.806     -87.904     -96.709
  O      -30.050     -89.815     -96.734
  H      -34.956     -93.175    -102.184
  H      -29.598     -90.491     -97.269
  H      -31.350     -96.839    -101.069
  H      -28.768     -94.084     -99.234
  H      -30.315     -92.283     -99.960
  H      -32.775     -92.654    -102.396
  H      -34.111     -93.691    -100.070
  H      -33.188     -91.922     -98.757
  H      -33.811     -90.096    -101.137
  H      -31.864     -88.820    -100.147
  H      -33.371     -88.681     -99.224
  P      -35.772     -92.118     -97.777
  C      -37.996     -90.830     -98.103
  O      -37.353     -92.086     -98.032
  O      -35.297     -91.944     -96.371
  O      -35.390     -93.599     -98.273
  H      -35.315     -94.183     -97.497
  H      -39.070     -90.997     -98.237
  H      -37.625     -90.261     -98.958
  H      -37.842     -90.264     -97.179
  H      -28.357     -87.097     -99.040
  H      -28.245     -88.175     -97.669
  H      -29.149     -86.685     -97.538

 3  4  5  6  7  8  9  10  11  12  13  23  28  29  30  31  32 0
 6-311+G(2d,p)
 ****
 33  34 0
 6-311+G(2d,p)
 ****
 1  2  14  15  16  17  18  19  20  21  22  24  25  26  27 0
 3-21G
 ****
 35  36  37  38  39  40  41  42  43  44  45 0
 3-21G
 ****


