%nproc=1
%NoSave
%Mem=1900MB
#P OB98/GEN NMR

erre ene a

0 1
  C      -27.145     257.196    -519.846
  O      -26.195     256.674    -518.927
  P      -25.538     255.225    -519.146
  C      -26.751     254.060    -517.180
  O      -26.628     254.186    -518.597
  C      -27.810     253.014    -516.845
  O      -29.120     253.522    -517.184
  C      -27.668     251.703    -517.606
  O      -26.618     250.910    -517.066
  C      -29.075     251.130    -517.449
  O      -29.229     250.523    -516.158
  C      -29.953     252.391    -517.545
  N      -30.535     252.586    -518.877
  C      -31.619     251.760    -519.202
  O      -32.055     250.941    -518.390
  N      -32.227     251.917    -520.424
  C      -31.759     252.791    -521.271
  N      -32.437     252.947    -522.444
  C      -30.584     253.636    -520.993
  C      -30.034     253.485    -519.785
  O      -24.169     255.060    -518.576
  O      -25.610     254.989    -520.733
  H      -30.188     250.417    -516.003
  H      -24.819     255.336    -521.216
  H      -30.232     254.347    -521.731
  H      -29.171     254.082    -519.494
  H      -30.753     252.356    -516.800
  H      -29.319     250.371    -518.207
  H      -27.464     251.897    -518.667
  H      -27.781     252.836    -515.757
  H      -33.336     252.480    -522.513
  H      -27.058     255.026    -516.767
  H      -32.325     253.778    -523.006
  H      -25.775     253.787    -516.756
  P      -25.749     250.028    -518.090
  C      -27.125     247.871    -517.614
  O      -26.724     248.833    -518.572
  O      -24.682     249.303    -517.139
  O      -25.106     250.816    -519.189
  H      -23.822     249.764    -517.199
  H      -27.954     247.299    -518.034
  H      -27.472     248.356    -516.693
  H      -26.304     247.190    -517.401
  H      -27.458     258.166    -519.522
  H      -27.992     256.544    -519.892
  H      -26.699     257.270    -520.816

 3  4  5  6  7  8  9  10  11  12  13  23  27  28  29  30  32 0
 6-311+G(2d,p)
 ****
 34  35 0
 6-311+G(2d,p)
 ****
 1  2  14  15  16  17  18  19  20  21  22  24  25  26 0
 3-21G
 ****
 31  33  36  37  38  39  40  41  42  43  44  45  46 0
 3-21G
 ****


