%nproc=1
%NoSave
%Mem=1900MB
#P OB98/GEN NMR

erre ene a

0 1
  C     -125.392    -287.856     549.712
  O     -126.374    -288.522     548.917
  P     -127.375    -287.664     548.012
  C     -127.151    -286.292     545.829
  O     -126.715    -287.426     546.567
  C     -126.073    -285.879     544.818
  O     -124.766    -285.793     545.442
  C     -125.896    -286.894     543.693
  O     -126.952    -287.004     542.764
  C     -124.520    -286.538     543.151
  O     -124.586    -285.454     542.228
  C     -123.779    -286.115     544.441
  N     -122.852    -287.141     544.919
  C     -121.862    -286.713     545.797
  O     -121.717    -285.536     546.133
  N     -121.008    -287.681     546.251
  C     -121.027    -289.000     545.897
  O     -120.219    -289.818     546.315
  C     -122.080    -289.388     544.951
  C     -122.929    -288.457     544.509
  O     -127.952    -286.449     548.654
  O     -128.545    -288.715     547.679
  H     -125.203    -284.789     542.603
  H     -129.397    -288.243     547.733
  H     -120.285    -287.388     546.893
  H     -122.123    -290.425     544.640
  H     -123.718    -288.725     543.812
  H     -123.199    -285.197     544.264
  H     -124.067    -287.383     542.619
  H     -125.803    -287.891     544.156
  H     -126.316    -284.892     544.430
  H     -127.364    -285.465     546.508
  H     -128.090    -286.532     545.327
  P     -127.723    -288.378     542.461
  C     -129.553    -289.059     544.166
  O     -129.213    -288.268     543.049
  O     -126.980    -289.647     542.711
  O     -127.989    -288.247     540.881
  H     -127.955    -289.143     540.490
  H     -130.601    -288.869     544.415
  H     -128.937    -288.801     545.029
  H     -129.440    -290.122     543.929
  H     -124.815    -288.581     550.248
  H     -125.878    -287.203     550.406
  H     -124.747    -287.285     549.077

 3  4  5  6  7  8  9  10  11  12  13  23  28  29  30  31  32 0
 6-311+G(2d,p)
 ****
 33  34 0
 6-311+G(2d,p)
 ****
 1  2  14  15  16  17  18  19  20  21  22  24  25  26  27 0
 3-21G
 ****
 35  36  37  38  39  40  41  42  43  44  45 0
 3-21G
 ****


