%nproc=1
%NoSave
%Mem=1900MB
#P OB98/GEN NMR

erre ene a

0 1
  C      259.545     -67.612     112.232
  O      259.433     -66.582     111.271
  H      259.877     -67.174     113.177
  H      260.274     -68.364     111.919
  H      258.569     -68.085     112.390
  P      259.210     -67.002     109.737
  C      261.659     -66.711     108.968
  O      260.609     -67.633     109.257
  C      262.970     -67.152     109.627
  O      262.701     -67.775     110.898
  C      263.739     -68.192     108.826
  O      264.293     -67.701     107.624
  C      264.649     -68.807     109.880
  O      265.866     -68.091     110.066
  C      263.780     -68.700     111.156
  N      263.286     -70.001     111.591
  C      263.755     -70.445     112.825
  O      264.554     -69.810     113.516
  N      263.308     -71.671     113.227
  C      262.495     -72.499     112.510
  O      262.162     -73.608     112.908
  C      262.051     -71.988     111.202
  C      262.461     -70.779     110.809
  O      258.691     -65.923     108.834
  O      258.251     -68.279     109.828
  H      265.637     -67.234     110.477
  H      257.829     -68.471     108.958
  H      263.629     -72.005     114.122
  H      261.407     -72.621     110.604
  H      262.149     -70.382     109.846
  H      264.365     -68.271     111.979
  H      264.919     -69.836     109.623
  H      263.036     -68.979     108.533
  H      263.581     -66.260     109.808
  H      261.365     -65.735     109.370
  H      261.787     -66.625     107.884
  P      263.854     -68.221     106.181
  C      266.291     -68.697     105.407
  O      264.988     -69.225     105.642
  O      263.294     -67.203     105.240
  O      262.657     -69.234     106.559
  H      261.994     -69.188     105.844
  H      266.933     -69.476     105.054
  H      266.684     -68.297     106.319
  H      266.234     -67.921     104.672

 6  7  8  9  10  11  12  13  14  15  16  26  31  32  33  34  35 0
 6-311+G(2d,p)
 ****
 36  37 0
 6-311+G(2d,p)
 ****
 1  2  3  4  5  17  18  19  20  21  22  23  24  25 0
 3-21G
 ****
 27  28  29  30  38  39  40  41  42  43  44  45 0
 3-21G
 ****


