%nproc=1
%NoSave
%Mem=1900MB
#P OB98/GEN NMR

erre ene a

0 1
  C      -84.655     695.133     370.230
  O      -84.531     695.037     368.809
  P      -83.605     693.878     368.190
  C      -81.188     694.776     368.283
  O      -82.166     693.942     368.895
  C      -79.836     694.660     369.015
  O      -79.345     693.280     368.978
  C      -78.754     695.536     368.381
  O      -77.837     696.013     369.391
  C      -77.992     694.561     367.506
  O      -76.677     695.036     367.196
  C      -78.039     693.302     368.379
  N      -74.499     690.336     366.163
  C      -74.394     691.453     366.911
  N      -75.378     692.170     367.493
  C      -76.577     691.623     367.230
  C      -76.841     690.483     366.479
  C      -75.730     689.832     365.926
  N      -75.846     688.711     365.128
  N      -78.198     690.237     366.440
  C      -78.744     691.227     367.091
  N      -77.813     692.085     367.621
  O      -83.567     693.804     366.701
  O      -84.235     692.543     368.815
  H      -76.219     694.317     366.711
  H      -84.265     691.849     368.119
  H      -73.379     691.810     367.071
  H      -79.815     691.394     367.210
  H      -77.303     693.338     369.184
  H      -78.541     694.420     366.555
  H      -79.131     696.401     367.812
  H      -79.981     694.914     370.070
  H      -81.528     695.812     368.291
  H      -75.007     688.371     364.676
  H      -76.765     688.404     364.837
  H      -81.093     694.495     367.233
  P      -77.897     697.597     369.680
  C      -76.331     698.416     367.746
  O      -77.640     698.321     368.279
  O      -77.015     698.027     370.810
  O      -79.455     697.828     369.978
  H      -80.048     697.447     369.297
  H      -76.395     698.816     366.731
  H      -75.862     697.430     367.705
  H      -75.731     699.081     368.364
  H      -85.301     695.949     370.477
  H      -83.690     695.298     370.662
  H      -85.067     694.223     370.614

 3  4  5  6  7  8  9  10  11  12  22  25  29  30  31  32 0
 6-311+G(2d,p)
 ****
 33  36  37 0
 6-311+G(2d,p)
 ****
 1  2  13  14  15  16  17  18  19  20  21  23  24  26 0
 3-21G
 ****
 27  28  34  35  38  39  40  41  42  43  44  45  46  47  48 0
 3-21G
 ****


