%nproc=1
%NoSave
%Mem=1900MB
#P OB98/GEN NMR

erre ene a

0 1
  C      -55.724    -548.732     656.155
  O      -54.574    -549.574     656.314
  P      -54.643    -550.742     657.415
  C      -55.854    -552.420     655.834
  O      -55.877    -551.705     657.061
  C      -55.500    -553.894     656.079
  O      -56.575    -554.595     656.742
  C      -55.238    -554.678     654.802
  O      -53.909    -554.479     654.335
  C      -55.414    -556.103     655.293
  O      -54.219    -556.543     655.974
  C      -56.571    -555.968     656.286
  N      -59.851    -559.709     655.065
  C      -58.604    -559.735     655.589
  N      -57.787    -558.699     655.867
  C      -58.383    -557.536     655.564
  C      -59.646    -557.346     655.022
  C      -60.404    -558.502     654.767
  N      -61.668    -558.474     654.234
  N      -59.901    -556.010     654.837
  C      -58.825    -555.393     655.274
  N      -57.876    -556.270     655.716
  O      -55.142    -549.973     658.728
  O      -53.338    -551.431     657.644
  H      -53.952    -555.815     656.571
  H      -54.737    -550.371     659.519
  H      -58.211    -560.727     655.816
  H      -58.690    -554.319     655.293
  H      -56.446    -556.612     657.169
  H      -55.586    -556.813     654.477
  H      -55.991    -554.444     654.034
  H      -54.611    -553.928     656.724
  H      -55.122    -551.972     655.158
  H      -62.157    -559.342     654.109
  H      -62.089    -557.570     654.036
  H      -56.827    -552.326     655.352
  P      -53.730    -554.060     652.789
  C      -54.166    -551.510     653.043
  O      -54.646    -552.758     652.584
  O      -54.522    -555.215     652.010
  O      -52.311    -553.947     652.342
  H      -54.121    -555.362     651.130
  H      -54.744    -550.709     652.567
  H      -53.116    -551.374     652.791
  H      -54.293    -551.437     654.130
  H      -55.532    -548.006     655.392
  H      -55.931    -548.233     657.078
  H      -56.567    -549.329     655.876

 3  4  5  6  7  8  9  10  11  12  22  25  29  30  31  32 0
 6-311+G(2d,p)
 ****
 33  36  37 0
 6-311+G(2d,p)
 ****
 1  2  13  14  15  16  17  18  19  20  21  23  24  26 0
 3-21G
 ****
 27  28  34  35  38  39  40  41  42  43  44  45  46  47  48 0
 3-21G
 ****


