%nproc=1
%NoSave
%Mem=1900MB
#P OB98/GEN NMR

erre ene a

0 1
  C      -80.509     452.077     333.558
  O      -80.684     451.606     334.878
  H      -79.534     452.572     333.491
  H      -81.278     452.810     333.307
  H      -80.533     451.248     332.844
  P      -82.056     450.875     335.273
  C      -82.660     452.632     337.046
  O      -82.317     451.272     336.815
  C      -81.490     453.395     337.668
  O      -80.423     453.535     336.688
  C      -81.858     454.805     338.151
  O      -81.336     455.021     339.467
  C      -81.146     455.721     337.168
  O      -80.879     457.017     337.699
  C      -79.912     454.873     336.829
  N      -79.240     455.342     335.621
  C      -78.019     455.996     335.811
  O      -77.563     456.140     336.945
  N      -77.369     456.516     334.721
  C      -77.921     456.439     333.546
  N      -77.236     456.997     332.511
  C      -79.223     455.779     333.307
  C      -79.823     455.261     334.376
  O      -82.089     449.410     334.986
  O      -83.197     451.693     334.505
  H      -80.608     457.604     336.956
  H      -83.991     451.119     334.405
  H      -79.637     455.744     332.309
  H      -80.787     454.759     334.298
  H      -79.189     454.879     337.654
  H      -81.768     455.848     336.273
  H      -82.931     454.991     338.164
  H      -81.075     452.792     338.487
  H      -76.350     457.440     332.726
  H      -83.532     452.666     337.708
  H      -77.574     457.019     331.565
  H      -82.920     453.094     336.087
  P      -82.363     455.601     340.558
  C      -80.658     457.421     341.276
  O      -81.511     456.360     341.687
  O      -82.902     454.288     341.295
  O      -83.478     456.393     339.956
  H      -83.838     454.132     341.057
  H      -80.159     457.828     342.130
  H      -81.241     458.185     340.805
  H      -79.933     457.048     340.583

 6  7  8  9  10  11  12  13  14  15  16  26  30  31  32  33  35 0
 6-311+G(2d,p)
 ****
 37  38 0
 6-311+G(2d,p)
 ****
 1  2  3  4  5  17  18  19  20  21  22  23  24  25 0
 3-21G
 ****
 27  28  29  34  36  39  40  41  42  43  44  45  46 0
 3-21G
 ****


