%nproc=1
%NoSave
%Mem=1900MB
#P OB98/GEN NMR

erre ene a

0 1
  C     -228.881    -541.565     -63.410
  O     -227.586    -541.646     -62.805
  P     -227.298    -540.692     -61.552
  C     -226.447    -538.696     -63.003
  O     -227.391    -539.162     -62.038
  C     -226.641    -537.193     -63.239
  O     -227.157    -536.542     -62.061
  C     -225.338    -536.468     -63.556
  O     -224.959    -536.689     -64.907
  C     -225.706    -535.017     -63.248
  O     -226.241    -534.349     -64.401
  C     -226.785    -535.155     -62.144
  N     -226.341    -534.654     -60.854
  C     -225.956    -533.305     -60.823
  O     -225.991    -532.627     -61.849
  N     -225.529    -532.775     -59.633
  C     -225.453    -533.530     -58.582
  N     -225.013    -532.950     -57.429
  C     -225.816    -534.965     -58.584
  C     -226.247    -535.455     -59.739
  O     -225.729    -540.899     -61.282
  O     -228.117    -541.015     -60.337
  H     -226.462    -533.442     -64.097
  H     -225.534    -540.821     -60.324
  H     -225.727    -535.552     -57.675
  H     -226.532    -536.499     -59.834
  H     -227.692    -534.603     -62.435
  H     -224.829    -534.442     -62.928
  H     -224.547    -536.800     -62.873
  H     -227.356    -537.060     -64.062
  H     -224.773    -531.961     -57.465
  H     -226.573    -539.240     -63.943
  H     -224.911    -533.443     -56.547
  H     -225.429    -538.911     -62.642
  P     -223.760    -537.703     -65.188
  C     -222.087    -535.830     -64.664
  O     -222.523    -537.138     -64.333
  O     -223.340    -537.329     -66.683
  O     -224.050    -539.160     -65.031
  H     -222.670    -537.957     -67.011
  H     -221.394    -535.487     -63.896
  H     -222.943    -535.139     -64.701
  H     -221.570    -535.834     -65.630
  H     -228.936    -542.251     -64.229
  H     -229.046    -540.570     -63.767
  H     -229.629    -541.813     -62.686

 3  4  5  6  7  8  9  10  11  12  13  21  23  27  28  29  30  32 0
 6-311+G(2d,p)
 ****
 34  35 0
 6-311+G(2d,p)
 ****
 1  2  14  15  16  17  18  19  20  22  24  25  26 0
 3-21G
 ****
 31  33  36  37  38  39  40  41  42  43  44  45  46 0
 3-21G
 ****


