%nproc=1
%NoSave
%Mem=1900MB
#P OB98/GEN NMR

erre ene a

0 1
  C        2.350     -29.095      23.667
  O        2.033     -29.384      25.016
  H        1.527     -29.434      23.033
  H        3.261     -29.623      23.374
  H        2.479     -28.019      23.533
  P        3.113     -28.938      26.115
  C        4.163     -31.304      26.143
  O        4.355     -29.922      25.870
  C        5.346     -32.121      25.627
  O        5.536     -31.902      24.219
  C        6.678     -31.779      26.284
  O        6.803     -32.422      27.541
  C        7.651     -32.346      25.262
  O        7.763     -33.773      25.435
  C        6.953     -32.034      23.925
  N        8.779     -30.081      19.543
  C        8.576     -31.356      19.942
  N        8.130     -31.801      21.134
  C        7.880     -30.776      21.965
  C        8.038     -29.424      21.697
  C        8.502     -29.085      20.415
  N        8.697     -27.782      20.008
  N        7.685     -28.664      22.792
  C        7.269     -29.538      23.686
  N        7.402     -30.832      23.247
  O        2.611     -28.841      27.514
  O        3.639     -27.561      25.484
  H        7.945     -33.940      26.378
  H        3.710     -27.634      24.516
  H        8.802     -32.120      19.203
  H        6.850     -29.288      24.653
  H        7.065     -32.856      23.208
  H        8.657     -31.933      25.371
  H        6.824     -30.696      26.354
  H        5.104     -33.183      25.762
  H        3.236     -31.659      25.681
  H        9.190     -27.634      19.141
  H        8.609     -27.050      20.699
  H        4.073     -31.414      27.228
  P        7.226     -31.591      28.846
  C        9.680     -32.251      28.455
  O        8.765     -31.178      28.645
  O        6.927     -32.259      30.144
  O        6.456     -30.198      28.702
  H        6.142     -29.892      29.575
  H       10.668     -31.860      28.333
  H        9.405     -32.804      27.581
  H        9.655     -32.896      29.308

 6  7  8  9  10  11  12  13  14  15  25  28  32  33  34  35 0
 6-311+G(2d,p)
 ****
 36  39  40 0
 6-311+G(2d,p)
 ****
 1  2  3  4  5  16  17  18  19  20  21  22  23  24 0
 3-21G
 ****
 26  27  29  30  31  37  38  41  42  43  44  45  46  47 0
 3-21G
 ****
 48 0
 3-21G
 ****


