%nproc=1
%NoSave
%Mem=1900MB
#P OB98/GEN NMR

erre ene a

0 1
  C      578.169     260.429    1132.332
  O      578.366     260.860    1131.003
  H      578.377     261.256    1133.012
  H      578.863     259.609    1132.554
  H      577.140     260.086    1132.503
  P      577.849     259.932    1129.801
  C      580.005     258.532    1129.639
  O      578.614     258.531    1129.943
  C      580.550     257.094    1129.536
  O      580.298     256.410    1130.805
  C      579.882     256.259    1128.412
  O      580.868     255.329    1127.943
  C      578.786     255.529    1129.187
  O      578.302     254.412    1128.452
  C      579.496     255.231    1130.505
  N      578.584     254.912    1131.582
  C      578.424     253.568    1131.885
  O      579.011     252.647    1131.270
  N      577.563     253.257    1132.889
  C      576.781     254.164    1133.572
  O      575.993     253.834    1134.442
  C      576.951     255.573    1133.178
  C      577.838     255.872    1132.216
  O      577.916     260.535    1128.437
  O      576.344     259.547    1130.208
  H      579.071     253.871    1128.161
  H      575.807     259.404    1129.411
  H      577.444     252.284    1133.118
  H      576.358     256.303    1133.703
  H      577.983     256.915    1131.923
  H      580.196     254.387    1130.380
  H      577.941     256.200    1129.354
  H      579.503     256.862    1127.591
  H      581.645     257.139    1129.401
  H      580.541     259.068    1130.434
  H      580.176     259.057    1128.692
  P      581.824     255.646    1126.693
  C      581.099     253.724    1125.127
  O      581.103     255.126    1125.345
  O      583.221     255.152    1126.850
  O      581.785     257.241    1126.547
  H      582.616     257.549    1126.159
  H      580.596     253.507    1124.208
  H      580.592     253.239    1125.935
  H      582.107     253.368    1125.074

 6  7  8  9  10  11  12  13  14  15  16  26  31  32  33  34  35 0
 6-311+G(2d,p)
 ****
 36  37 0
 6-311+G(2d,p)
 ****
 1  2  3  4  5  17  18  19  20  21  22  23  24  25 0
 3-21G
 ****
 27  28  29  30  38  39  40  41  42  43  44  45 0
 3-21G
 ****


