%nproc=1
%NoSave
%Mem=1900MB
#P OB98/GEN NMR

erre ene a

0 1
  C     -120.763    -280.674     108.714
  O     -121.214    -281.491     107.651
  H     -121.632    -280.313     109.271
  H     -120.211    -279.815     108.322
  H     -120.123    -281.249     109.389
  P     -120.079    -282.136     106.717
  C     -120.574    -280.396     104.839
  O     -120.482    -281.764     105.211
  C     -120.164    -280.216     103.371
  O     -118.749    -280.548     103.241
  C     -120.929    -281.120     102.394
  O     -120.989    -280.448     101.125
  C     -119.996    -282.318     102.289
  O     -120.342    -283.134     101.195
  C     -118.658    -281.590     102.244
  N     -115.869    -285.537     100.561
  C     -116.913    -284.875     100.013
  N     -117.595    -283.826     100.516
  C     -117.087    -283.451     101.703
  C     -116.026    -284.025     102.382
  C     -115.401    -285.120     101.761
  N     -114.345    -285.802     102.321
  N     -115.799    -283.366     103.580
  C     -116.712    -282.416     103.618
  N     -117.515    -282.434     102.512
  O     -120.371    -283.705     106.815
  O     -118.673    -281.802     107.092
  H     -121.166    -283.636     101.383
  H     -119.803    -284.106     107.500
  H     -117.243    -285.238      99.043
  H     -116.839    -281.698     104.423
  H     -118.489    -281.107     101.271
  H     -120.069    -282.944     103.186
  H     -121.942    -281.366     102.728
  H     -120.264    -279.155     103.101
  H     -119.909    -279.814     105.486
  H     -121.603    -280.048     104.976
  H     -113.967    -286.591     101.822
  H     -113.996    -285.517     103.225
  P     -122.336    -279.663     100.721
  C     -122.658    -281.228      98.646
  O     -122.617    -279.905      99.158
  O     -121.842    -278.134     100.735
  O     -123.497    -279.856     101.636
  H     -122.600    -277.555     100.941
  H     -122.855    -281.198      97.595
  H     -123.433    -281.777      99.138
  H     -121.717    -281.707      98.819

 6  7  8  9  10  11  12  13  14  15  25  28  32  33  34  35 0
 6-311+G(2d,p)
 ****
 36  37  40 0
 6-311+G(2d,p)
 ****
 1  2  3  4  5  16  17  18  19  20  21  22  23  24 0
 3-21G
 ****
 26  27  29  30  31  38  39 41  42  43  44  45  46  47  48 0
 3-21G
 ****


