%nproc=1
%NoSave
%Mem=1900MB
#P OB98/GEN NMR

erre ene a

0 1
  C       87.432      -5.122    -203.653
  O       86.555      -4.118    -204.125
  H       88.359      -4.648    -203.320
  H       87.666      -5.830    -204.453
  H       86.981      -5.647    -202.806
  P       85.140      -4.613    -204.697
  C       85.810      -4.363    -207.186
  O       85.490      -5.255    -206.125
  C       85.930      -5.122    -208.505
  O       87.104      -5.954    -208.496
  C       84.756      -6.043    -208.810
  O       83.689      -5.314    -209.397
  C       85.390      -7.000    -209.810
  O       85.406      -6.392    -211.116
  C       86.827      -7.143    -209.281
  N       87.661     -12.207    -209.264
  C       87.275     -11.368    -210.248
  N       87.017     -10.042    -210.170
  C       87.210      -9.593    -208.918
  C       87.601     -10.335    -207.812
  C       87.837     -11.705    -208.020
  N       88.231     -12.561    -207.016
  N       87.689      -9.537    -206.691
  C       87.414      -8.325    -207.125
  N       87.080      -8.312    -208.458
  O       84.045      -3.601    -204.681
  O       84.882      -5.909    -203.792
  H       85.925      -6.983    -211.695
  H       85.706      -6.411    -203.670
  H       87.149     -11.818    -211.228
  H       87.461      -7.423    -206.526
  H       87.559      -7.173    -210.097
  H       84.839      -7.937    -209.901
  H       84.440      -6.607    -207.925
  H       86.063      -4.383    -209.308
  H       86.750      -3.843    -206.972
  H       88.189     -13.548    -207.208
  H       88.233     -12.207    -206.069
  H       85.010      -3.618    -207.247
  P       82.253      -5.234    -208.690
  C       81.377      -7.376    -209.812
  O       81.756      -6.756    -208.590
  O       81.302      -4.283    -209.326
  O       82.581      -4.863    -207.169
  H       81.774      -4.535    -206.726
  H       81.066      -8.382    -209.620
  H       82.211      -7.382    -210.482
  H       80.569      -6.831    -210.253

 6  7  8  9  10  11  12  13  14  15  25  28  32  33  34  35 0
 6-311+G(2d,p)
 ****
 36  39  40 0
 6-311+G(2d,p)
 ****
 1  2  3  4  5  16  17  18  19  20  21  22  23  24 0
 3-21G
 ****
 26  27  29  30  31  37  38  41  42  43  44  45  46  47 0
 3-21G
 ****
 48 0
 3-21G
 ****


