%nproc=1
%NoSave
%Mem=1900MB
#P OB98/GEN NMR

erre ene a

0 1
  C     -188.621      20.235    -163.943
  O     -189.066      18.905    -163.751
  P     -188.103      17.830    -163.059
  C     -189.917      17.368    -161.251
  O     -188.574      17.693    -161.533
  C     -190.125      17.119    -159.752
  O     -189.350      15.953    -159.385
  C     -189.641      18.245    -158.844
  O     -190.255      18.088    -157.562
  C     -188.163      17.947    -158.740
  O     -187.566      18.569    -157.605
  C     -188.131      16.397    -158.741
  N     -186.954      15.880    -159.459
  C     -185.787      15.717    -158.720
  O     -185.730      15.911    -157.507
  N     -184.664      15.405    -159.437
  C     -184.601      15.293    -160.794
  O     -183.556      15.322    -161.434
  C     -185.896      15.239    -161.487
  C     -186.998      15.557    -160.802
  O     -186.711      18.612    -162.961
  O     -187.966      16.543    -163.796
  H     -186.644      18.226    -157.545
  H     -186.137      18.375    -163.713
  H     -183.793      15.430    -158.919
  H     -185.902      15.003    -162.542
  H     -187.963      15.577    -161.301
  H     -188.107      15.998    -157.721
  H     -187.656      18.333    -159.632
  H     -189.830      19.250    -159.233
  H     -191.181      16.897    -159.564
  H     -190.205      16.487    -161.832
  H     -190.580      18.181    -161.573
  P     -190.513      19.408    -156.688
  C     -193.075      19.261    -156.742
  O     -191.933      19.986    -157.154
  O     -189.396      20.397    -156.653
  O     -190.832      18.819    -155.230
  H     -190.713      19.516    -154.560
  H     -193.915      19.954    -156.645
  H     -192.911      18.766    -155.782
  H     -193.319      18.511    -157.499
  H     -189.393      20.805    -164.416
  H     -187.749      20.233    -164.563
  H     -188.385      20.672    -162.995

 3  4  5  6  7  8  9  10  11  12  13  23  28  29  30  31  32 0
 6-311+G(2d,p)
 ****
 33  34 0
 6-311+G(2d,p)
 ****
 1  2  14  15  16  17  18  19  20  21  22  24  25  26  27 0
 3-21G
 ****
 35  36  37  38  39  40  41  42  43  44  45 0
 3-21G
 ****


