%nproc=1
%NoSave
%Mem=1900MB
#P OB98/GEN NMR

erre ene a

0 1
  C     1237.056     563.176    -505.403
  O     1236.465     562.072    -504.745
  P     1234.898     562.032    -504.414
  C     1233.559     562.890    -502.379
  O     1234.678     563.098    -503.252
  C     1233.724     563.645    -501.058
  O     1234.742     562.937    -500.258
  C     1234.170     565.106    -501.172
  O     1233.533     565.774    -500.073
  C     1235.656     565.002    -500.974
  O     1236.230     566.275    -500.590
  C     1235.760     563.922    -499.905
  N     1237.091     563.324    -499.850
  C     1237.944     563.806    -498.852
  O     1237.592     564.718    -498.114
  N     1239.214     563.253    -498.738
  C     1239.597     562.375    -499.599
  N     1240.832     561.840    -499.429
  C     1238.776     561.929    -500.729
  C     1237.530     562.425    -500.803
  O     1234.348     560.673    -504.152
  O     1234.231     562.755    -505.672
  H     1237.167     566.138    -500.363
  H     1234.191     562.139    -506.452
  H     1239.166     561.216    -501.462
  H     1236.839     562.163    -501.588
  H     1235.499     564.302    -498.902
  H     1236.142     564.700    -501.904
  H     1233.865     565.555    -502.122
  H     1232.776     563.557    -500.496
  H     1241.358     562.172    -498.613
  H     1233.458     561.820    -502.196
  H     1241.224     561.092    -500.002
  H     1232.638     563.221    -502.905
  P     1232.653     567.110    -500.327
  C     1232.959     569.584    -499.795
  O     1233.624     568.359    -500.003
  O     1231.339     567.140    -499.620
  O     1232.483     567.182    -501.938
  H     1231.768     567.823    -502.143
  H     1233.697     570.295    -499.323
  H     1232.115     569.490    -499.138
  H     1232.628     570.031    -500.749
  H     1238.104     562.999    -505.525
  H     1236.909     564.060    -504.819
  H     1236.602     563.304    -506.363

 3  4  5  6  7  8  9  10  11  12  13  23  27  28  29  30  32 0
 6-311+G(2d,p)
 ****
 34  35 0
 6-311+G(2d,p)
 ****
 1  2  14  15  16  17  18  19  20  21  22  24  25  26 0
 3-21G
 ****
 31  33  36  37  38  39  40  41  42  43  44  45  46 0
 3-21G
 ****


