%nproc=1
%NoSave
%Mem=1900MB
#P OB98/GEN NMR

erre ene a

0 1
  C     -230.872     184.735      68.565
  O     -230.458     184.263      69.832
  H     -230.147     185.475      68.214
  H     -231.852     185.213      68.634
  H     -230.909     183.914      67.844
  P     -231.365     183.165      70.564
  C     -229.325     181.916      71.534
  O     -230.508     182.651      71.818
  C     -228.638     181.509      72.833
  O     -228.176     182.673      73.543
  C     -229.542     180.742      73.796
  O     -229.623     179.377      73.421
  C     -228.797     180.960      75.103
  O     -227.646     180.097      75.156
  C     -228.355     182.427      74.966
  N     -229.973     184.883      79.094
  C     -229.004     183.906      78.965
  N     -228.414     183.496      80.109
  N     -228.663     183.367      77.824
  C     -229.387     183.826      76.779
  C     -230.381     184.777      76.784
  C     -230.712     185.407      78.043
  O     -231.551     186.289      78.199
  N     -230.933     184.934      75.538
  C     -230.247     184.106      74.775
  N     -229.306     183.398      75.484
  O     -231.895     182.060      69.701
  O     -232.537     184.016      71.241
  H     -227.984     179.189      75.267
  H     -233.312     184.078      70.654
  H     -230.204     185.246      80.004
  H     -230.389     183.983      73.708
  H     -227.396     182.622      75.458
  H     -229.403     180.749      75.984
  H     -228.832     183.664      81.016
  H     -230.531     181.203      73.880
  H     -227.739     182.746      80.042
  H     -227.752     180.917      72.572
  H     -228.669     182.561      70.940
  H     -229.563     181.023      70.949
  P     -231.038     178.689      73.100
  C     -230.136     177.479      71.003
  O     -230.674     177.342      72.311
  O     -232.020     179.571      72.408
  O     -231.546     178.138      74.509
  H     -232.069     178.798      75.026
  H     -229.940     176.510      70.595
  H     -229.225     178.038      71.049
  H     -230.838     177.993      70.381

 6  7  8  9  10  11  12  13  14  15  26  29  33  34 0
 6-311+G(2d,p)
 ****
 36  38  39  40  41 0
 6-311+G(2d,p)
 ****
 1  2  3  4  5  16  17  18  19  20  21  22  23  24  25 0
 3-21G
 ****
 27  28  30  31  32  35  37  42  43  44  45  46  47 0
 3-21G
 ****
 48  49 0
 3-21G
 ****


