%nproc=1
%NoSave
%Mem=1900MB
#P OB98/GEN NMR

erre ene a

0 1
  C        4.273    -764.253     -96.737
  O        4.819    -763.007     -96.287
  P        5.542    -761.957     -97.259
  C        8.065    -762.413     -96.943
  O        6.925    -762.577     -97.779
  C        9.369    -762.759     -97.663
  O        9.715    -761.694     -98.608
  C       10.581    -762.953     -96.735
  O       11.347    -764.036     -97.283
  C       11.311    -761.624     -96.878
  O       12.665    -761.665     -96.466
  C       11.101    -761.380     -98.381
  N       11.407    -760.027     -98.836
  C       12.417    -759.872     -99.798
  O       13.076    -760.830    -100.197
  N       12.690    -758.609    -100.264
  C       12.019    -757.596     -99.821
  N       12.330    -756.370    -100.341
  C       10.955    -757.705     -98.802
  C       10.708    -758.937     -98.363
  O        5.700    -760.592     -96.667
  O        4.630    -761.893     -98.578
  H        4.635    -760.982     -98.930
  H       13.033    -760.766     -96.550
  H       10.419    -756.830     -98.467
  H        9.925    -759.107     -97.631
  H       11.696    -762.101     -98.951
  H       10.795    -760.883     -96.263
  H       10.306    -763.202     -95.709
  H        9.201    -763.661     -98.263
  H       13.054    -756.334    -101.046
  H        7.950    -763.084     -96.078
  H       11.867    -755.514    -100.077
  H        8.086    -761.382     -96.573
  P       11.636    -765.331     -96.393
  C       14.097    -764.748     -95.755
  O       12.774    -764.937     -95.322
  O       12.464    -766.258     -97.411
  O       10.440    -766.067     -95.890
  H       12.361    -767.195     -97.158
  H       14.490    -763.846     -95.271
  H       14.170    -764.617     -96.842
  H       14.704    -765.599     -95.449
  H        3.846    -764.776     -95.907
  H        5.050    -764.847     -97.171
  H        3.515    -764.067     -97.469

 3  4  5  6  7  8  9  10  11  12  13  24  27  28  29  30  32 0
 6-311+G(2d,p)
 ****
 34  35 0
 6-311+G(2d,p)
 ****
 1  2  14  15  16  17  18  19  20  21  22  23  25  26 0
 3-21G
 ****
 31  33  36  37  38  39  40  41  42  43  44  45  46 0
 3-21G
 ****


