%nproc=1
%NoSave
%Mem=1900MB
#P OB98/GEN NMR

erre ene a

0 1
  C      416.270     691.166     184.633
  O      416.094     692.390     183.943
  H      416.649     691.385     185.637
  H      417.002     690.537     184.115
  H      415.319     690.642     184.716
  P      415.647     692.297     182.404
  C      415.323     694.869     182.172
  O      416.014     693.704     181.722
  C      415.373     695.944     181.090
  O      416.733     696.431     180.939
  C      414.987     695.448     179.698
  O      413.580     695.350     179.538
  C      415.587     696.520     178.819
  O      414.727     697.664     178.691
  C      416.888     696.885     179.586
  N      418.069     696.312     178.944
  C      418.233     696.626     177.585
  O      417.432     697.330     176.946
  N      419.317     696.053     176.967
  C      420.211     695.199     177.548
  O      421.133     694.694     176.919
  C      419.986     694.901     178.968
  C      418.940     695.455     179.590
  O      414.054     692.316     182.483
  O      416.159     691.094     181.677
  H      413.702     691.428     182.302
  H      415.183     698.273     178.070
  H      419.441     696.286     176.004
  H      420.664     694.214     179.446
  H      418.739     695.239     180.633
  H      417.007     697.974     179.626
  H      415.784     696.150     177.810
  H      415.478     694.485     179.488
  H      414.736     696.780     181.388
  H      415.801     695.257     183.076
  H      414.289     694.598     182.404
  P      412.989     693.984     178.910
  C      410.497     694.797     179.232
  O      411.518     694.374     178.360
  O      412.716     693.141     180.236
  O      413.906     693.346     177.924
  H      412.552     693.720     181.005
  H      409.611     695.004     178.670
  H      410.810     695.683     179.744
  H      410.295     694.026     179.945

 6  7  8  9  10  11  12  13  14  15  16  27  31  32  33  34  35 0
 6-311+G(2d,p)
 ****
 36  37 0
 6-311+G(2d,p)
 ****
 1  2  3  4  5  17  18  19  20  21  22  23  24  25 0
 3-21G
 ****
 26  28  29  30  38  39  40  41  42  43  44  45 0
 3-21G
 ****


