%nproc=1
%NoSave
%Mem=1900MB
#P OB98/GEN NMR

erre ene a

0 1
  C      566.271     188.593     416.211
  O      567.209     188.683     417.266
  P      568.698     188.163     416.982
  C      569.438     189.512     419.091
  O      569.523     188.306     418.357
  C      570.164     189.360     420.427
  O      571.463     188.757     420.219
  C      570.429     190.679     421.137
  O      569.275     191.158     421.798
  C      571.559     190.292     422.100
  O      571.038     189.686     423.292
  C      572.347     189.261     421.258
  N      573.580     189.832     420.692
  C      574.549     190.188     421.620
  O      574.395     190.073     422.843
  N      575.699     190.726     421.101
  C      575.944     190.966     419.780
  O      576.972     191.511     419.386
  C      574.862     190.588     418.849
  C      573.749     190.046     419.351
  O      569.339     189.301     416.039
  O      568.777     186.812     416.341
  H      571.809     189.300     423.768
  H      569.922     188.888     415.384
  H      576.434     190.964     421.756
  H      575.028     190.776     417.794
  H      572.936     189.777     418.685
  H      572.614     188.406     421.877
  H      572.143     191.164     422.409
  H      570.802     191.427     420.418
  H      569.586     188.688     421.067
  H      568.393     189.757     419.263
  H      569.884     190.327     418.497
  P      568.962     192.725     421.705
  C      566.508     192.169     422.419
  O      567.665     192.960     422.616
  O      568.428     192.827     420.185
  O      570.154     193.577     421.999
  H      567.959     192.026     419.911
  H      566.756     191.152     422.137
  H      565.892     192.639     421.640
  H      565.936     192.152     423.355
  H      565.327     188.973     416.540
  H      566.161     187.570     415.918
  H      566.616     189.168     415.377

 3  4  5  6  7  8  9  10  11  12  13  23  28  29  30  31  32 0
 6-311+G(2d,p)
 ****
 33  34 0
 6-311+G(2d,p)
 ****
 1  2  14  15  16  17  18  19  20  21  22  24  25  26 0
 3-21G
 ****
 27  35  36  37  38  39  40  41  42  43  44  45 0
 3-21G
 ****


