%nproc=1
%NoSave
%Mem=1900MB
#P OB98/GEN NMR

erre ene a

0 1
  C       61.846     218.173      82.502
  O       61.809     217.551      83.797
  P       61.975     215.956      83.904
  C       63.604     216.115      85.945
  O       62.403     215.584      85.405
  C       63.489     216.230      87.469
  O       62.385     217.094      87.828
  C       63.211     214.915      88.180
  O       64.374     214.109      88.276
  C       62.699     215.403      89.528
  O       63.790     215.730      90.407
  C       61.921     216.674      89.131
  N       60.475     216.476      89.144
  C       59.875     216.379      90.394
  O       60.508     216.393      91.449
  N       58.515     216.226      90.393
  C       57.722     216.096      89.288
  O       56.510     215.942      89.353
  C       58.424     216.125      87.997
  C       59.746     216.305      87.985
  O       63.341     215.710      83.101
  O       60.864     215.147      83.319
  H       63.392     216.007      91.256
  H       63.335     214.813      82.715
  H       58.056     216.184      91.290
  H       57.836     216.001      87.097
  H       60.279     216.330      87.038
  H       62.167     217.495      89.816
  H       62.089     214.653      90.042
  H       62.408     214.374      87.666
  H       64.414     216.686      87.847
  H       63.781     217.107      85.523
  H       64.437     215.462      85.671
  P       64.157     212.518      88.231
  C       65.745     212.041      86.211
  O       65.503     211.927      87.596
  O       63.059     212.396      87.072
  O       63.739     211.947      89.545
  H       63.174     213.076      86.385
  H       65.324     212.963      85.802
  H       65.306     211.182      85.695
  H       66.824     212.041      86.042
  H       61.721     219.230      82.610
  H       61.056     217.781      81.895
  H       62.788     217.971      82.036

 3  4  5  6  7  8  9  10  11  12  13  23  28  29  30  31  32 0
 6-311+G(2d,p)
 ****
 33  34 0
 6-311+G(2d,p)
 ****
 1  2  14  15  16  17  18  19  20  21  22  24  25  26 0
 3-21G
 ****
 27  35  36  37  38  39  40  41  42  43  44  45 0
 3-21G
 ****


