%nproc=1
%NoSave
%Mem=1900MB
#P OB98/GEN NMR

erre ene a

0 1
  C       66.091     736.845    -196.330
  O       67.078     737.746    -196.816
  P       67.678     737.466    -198.275
  C       65.894     738.705    -199.679
  O       66.429     737.450    -199.293
  C       65.301     738.632    -201.091
  O       64.247     737.626    -201.112
  C       64.712     739.945    -201.611
  O       65.098     740.139    -202.968
  C       63.209     739.687    -201.592
  O       62.517     740.501    -202.533
  C       63.185     738.183    -201.911
  N       58.855     736.528    -203.960
  C       60.041     736.936    -204.576
  N       60.038     736.952    -205.936
  N       61.123     737.287    -203.920
  C       60.985     737.198    -202.584
  C       59.874     736.810    -201.857
  C       58.681     736.476    -202.594
  O       57.576     736.210    -202.101
  N       60.132     736.820    -200.500
  C       61.390     737.238    -200.409
  N       61.945     737.521    -201.640
  O       68.129     735.921    -198.192
  O       68.832     738.343    -198.670
  H       62.839     741.414    -202.399
  H       69.069     735.838    -198.412
  H       58.063     736.276    -204.505
  H       61.927     737.353    -199.486
  H       63.433     738.021    -202.973
  H       62.828     739.889    -200.596
  H       59.259     736.642    -206.489
  H       64.986     740.817    -201.004
  H       60.894     737.214    -206.397
  H       66.094     738.266    -201.784
  H       66.692     739.464    -199.665
  H       65.107     738.994    -198.975
  P       65.084     741.667    -203.497
  C       67.618     741.739    -204.130
  O       66.576     742.210    -203.290
  O       64.242     742.436    -202.385
  O       64.519     741.828    -204.878
  H       63.838     743.254    -202.750
  H       67.216     741.152    -204.971
  H       68.299     741.115    -203.545
  H       68.180     742.592    -204.533
  H       65.781     737.149    -195.352
  H       66.501     735.858    -196.283
  H       65.248     736.850    -196.989

 3  4  5  6  7  8  9  10  11  12  23  26  30  31  33  0
 6-311+G(2d,p)
 ****
 35  36  37  38 0
 6-311+G(2d,p)
 ****
 1  2  13  14  15  16  17  18  19  20  21  22  24  25  27  28  29 0
 3-21G
 ****
 32  34  39  40  41  42  43  44  45  46  47  48  49 0
 3-21G
 ****


