%nproc=1
%NoSave
%Mem=1900MB
#P OB98/GEN NMR

erre ene a

0 1
  C      262.012    -196.003    -150.959
  O      262.727    -194.760    -150.951
  P      263.926    -194.581    -152.001
  C      262.644    -193.927    -154.167
  O      263.486    -193.496    -153.104
  C      262.007    -192.731    -154.899
  O      261.027    -192.068    -154.054
  C      263.027    -191.655    -155.309
  O      262.550    -191.023    -156.507
  C      262.942    -190.668    -154.160
  O      263.476    -189.390    -154.531
  C      261.443    -190.694    -153.878
  N      257.995    -188.259    -151.117
  C      258.019    -188.532    -152.479
  N      256.950    -188.123    -153.188
  N      259.006    -189.151    -153.073
  C      259.989    -189.529    -152.213
  C      260.085    -189.316    -150.861
  C      258.998    -188.610    -150.218
  O      258.918    -188.324    -149.018
  N      261.245    -189.835    -150.346
  C      261.860    -190.353    -151.397
  N      261.120    -190.231    -152.541
  O      263.890    -195.969    -152.816
  O      265.259    -194.354    -151.367
  H      263.092    -189.158    -155.405
  H      264.669    -196.512    -152.563
  H      257.213    -187.767    -150.709
  H      262.830    -190.834    -151.376
  H      260.869    -190.076    -154.587
  H      263.518    -191.042    -153.306
  H      256.135    -187.684    -152.786
  H      264.043    -192.024    -155.480
  H      256.931    -188.342    -154.182
  H      261.486    -193.105    -155.784
  H      261.852    -194.575    -153.780
  H      263.227    -194.547    -154.857
  P      262.636    -191.871    -157.864
  C      260.235    -192.856    -157.835
  O      261.140    -191.953    -158.432
  O      262.931    -193.368    -157.355
  O      263.671    -191.398    -158.833
  H      263.379    -193.878    -158.049
  H      259.549    -192.306    -157.181
  H      260.751    -193.627    -157.247
  H      259.660    -193.363    -158.623
  H      261.247    -195.979    -150.212
  H      262.689    -196.805    -150.751
  H      261.567    -196.152    -151.921

 3  4  5  6  7  8  9  10  11  12  23  26  30  31 0
 6-311+G(2d,p)
 ****
 33  35  36  37  38 0
 6-311+G(2d,p)
 ****
 1  2  13  14  15  16  17  18  19  20  21  22  24  25 0
 3-21G
 ****
 27  28  29  32  34  39  40  41  42  43  44  45  46  47  48  49 0
 3-21G
 ****


