%nproc=1
%NoSave
%Mem=1900MB
#P OB98/GEN NMR

erre ene a

0 1
  C     -206.830     688.015     611.459
  O     -207.127     686.739     611.979
  P     -208.141     685.749     611.233
  C     -206.514     683.881     610.526
  O     -207.294     684.992     610.094
  C     -207.090     682.574     609.966
  O     -208.454     682.414     610.475
  C     -207.153     682.555     608.427
  O     -206.542     681.410     607.821
  C     -208.639     682.724     608.146
  O     -209.037     682.283     606.864
  C     -209.263     682.012     609.349
  N     -210.672     682.346     609.528
  C     -211.606     681.534     608.885
  O     -211.321     680.557     608.193
  N     -212.912     681.911     609.012
  C     -213.362     683.055     609.598
  O     -214.543     683.377     609.584
  C     -212.333     683.893     610.224
  C     -211.058     683.497     610.184
  O     -209.402     686.376     610.741
  O     -208.367     684.587     612.310
  H     -209.991     682.447     606.768
  H     -207.559     684.110     612.574
  H     -213.597     681.331     608.552
  H     -212.655     684.812     610.690
  H     -210.273     684.092     610.642
  H     -209.174     680.932     609.259
  H     -208.866     683.797     608.201
  H     -206.603     683.409     607.999
  H     -206.478     681.750     610.349
  H     -206.523     683.839     611.612
  H     -205.470     684.014     610.209
  P     -205.914     681.377     606.350
  C     -203.450     681.841     607.028
  O     -204.599     682.280     606.341
  O     -206.880     681.655     605.242
  O     -205.332     679.891     606.227
  H     -205.348     679.610     605.300
  H     -202.872     682.711     607.357
  H     -202.830     681.248     606.348
  H     -203.711     681.239     607.903
  H     -206.136     688.511     612.105
  H     -207.729     688.591     611.392
  H     -206.399     687.912     610.485

 3  4  5  6  7  8  9  10  11  12  13  23  28  29  30  31  32 0
 6-311+G(2d,p)
 ****
 33  34 0
 6-311+G(2d,p)
 ****
 1  2  14  15  16  17  18  19  20  21  22  24  25  26  27 0
 3-21G
 ****
 35  36  37  38  39  40  41  42  43  44  45 0
 3-21G
 ****


