%nproc=1
%NoSave
%Mem=1900MB
#P OB98/GEN NMR

erre ene a

0 1
  C     -750.763     691.006    -291.276
  O     -749.472     691.243    -291.823
  P     -748.821     692.686    -291.578
  C     -748.836     693.809    -293.914
  O     -749.489     693.656    -292.666
  C     -749.159     695.169    -294.531
  O     -750.582     695.307    -294.683
  C     -748.716     696.364    -293.684
  O     -747.338     696.649    -293.851
  C     -749.588     697.462    -294.271
  O     -748.981     697.971    -295.477
  C     -750.890     696.717    -294.608
  N     -755.275     699.044    -293.538
  C     -754.511     699.076    -294.685
  N     -754.997     699.814    -295.713
  N     -753.374     698.454    -294.819
  C     -753.033     697.720    -293.734
  C     -753.706     697.600    -292.538
  C     -754.936     698.347    -292.385
  O     -755.622     698.401    -291.363
  N     -753.050     696.754    -291.683
  C     -752.008     696.326    -292.366
  N     -751.941     696.905    -293.616
  O     -747.322     692.503    -292.125
  O     -748.846     693.157    -290.160
  H     -749.554     698.683    -295.809
  H     -746.729     693.146    -291.680
  H     -756.159     699.528    -293.489
  H     -751.292     695.603    -292.000
  H     -751.289     697.016    -295.581
  H     -749.707     698.327    -293.602
  H     -755.922     700.219    -295.711
  H     -748.981     696.214    -292.629
  H     -754.471     699.833    -296.570
  H     -748.702     695.210    -295.529
  H     -749.163     693.021    -294.600
  H     -747.750     693.701    -293.762
  P     -746.440     696.666    -292.520
  C     -746.833     699.238    -292.433
  O     -746.864     698.002    -291.741
  O     -744.970     696.985    -293.069
  O     -746.490     695.396    -291.731
  H     -744.300     696.636    -292.462
  H     -747.131     699.111    -293.480
  H     -745.821     699.650    -292.397
  H     -747.529     699.938    -291.954
  H     -751.074     690.010    -291.514
  H     -751.459     691.705    -291.689
  H     -750.727     691.124    -290.213

 3  4  5  6  7  8  9  10  11  12  23  26  30  31  33  0
 6-311+G(2d,p)
 ****
 35  36  37  38 0
 6-311+G(2d,p)
 ****
 1  2  13  14  15  16  17  18  19  20  21  22  24  25  27  28  29 0
 3-21G
 ****
 32  34  39  40  41  42  43  44  45  46  47  48  49 0
 3-21G
 ****


