%nproc=1
%NoSave
%Mem=1900MB
#P OB98/GEN NMR

erre ene a

0 1
  C       -5.943     326.140    1112.895
  O       -5.652     325.849    1114.250
  H       -5.940     327.229    1112.770
  H       -6.932     325.763    1112.631
  H       -5.186     325.712    1112.230
  P       -5.596     324.315    1114.700
  C       -4.152     325.376    1116.584
  O       -5.099     324.371    1116.239
  C       -3.444     325.013    1117.883
  O       -3.004     323.633    1117.875
  C       -2.180     325.817    1118.174
  O       -2.429     327.146    1118.579
  C       -1.593     324.975    1119.300
  O       -2.324     325.212    1120.509
  C       -1.853     323.541    1118.756
  N       -0.706     322.995    1118.024
  C        0.221     322.259    1118.784
  O        0.062     322.087    1120.006
  N        1.325     321.729    1118.159
  C        1.514     321.950    1116.889
  N        2.630     321.423    1116.312
  C        0.576     322.744    1116.056
  C       -0.498     323.229    1116.695
  O       -4.822     323.393    1113.814
  O       -7.125     323.893    1114.878
  H       -2.049     326.105    1120.833
  H       -7.155     322.940    1115.153
  H        0.788     322.921    1115.010
  H       -1.228     323.821    1116.144
  H       -2.115     322.862    1119.571
  H       -0.531     325.201    1119.490
  H       -1.491     325.789    1117.315
  H       -4.180     325.112    1118.695
  H        3.247     320.892    1116.904
  H       -4.679     326.327    1116.678
  H        2.881     321.598    1115.349
  H       -3.398     325.468    1115.786
  P       -1.430     328.274    1118.022
  C       -3.643     329.666    1118.136
  O       -2.218     329.669    1118.117
  O       -1.364     327.977    1116.451
  O       -0.070     328.290    1118.664
  H       -0.566     327.452    1116.233
  H       -4.001     330.672    1118.202
  H       -3.987     329.109    1118.982
  H       -4.011     329.215    1117.238

 6  7  8  9  10  11  12  13  14  15  16  26  30  31  32  33  35 0
 6-311+G(2d,p)
 ****
 37  38 0
 6-311+G(2d,p)
 ****
 1  2  3  4  5  17  18  19  20  21  22  23  24  25 0
 3-21G
 ****
 27  28  29  34  36  39  40  41  42  43  44  45  46 0
 3-21G
 ****


