%nproc=1
%NoSave
%Mem=1900MB
#P OB98/GEN NMR

erre ene a

0 1
  C      -26.481    -171.640     478.154
  O      -26.087    -171.487     476.781
  P      -25.361    -170.175     476.207
  C      -27.400    -169.166     474.962
  O      -26.108    -169.749     474.852
  C      -27.447    -167.804     474.270
  O      -26.454    -166.917     474.824
  C      -27.131    -167.824     472.773
  O      -28.187    -168.365     472.005
  C      -26.854    -166.341     472.510
  O      -28.075    -165.616     472.279
  C      -26.220    -165.886     473.837
  N      -24.796    -165.591     473.718
  C      -24.457    -164.298     473.331
  O      -25.332    -163.485     473.032
  N      -23.129    -163.955     473.277
  C      -22.220    -164.859     473.479
  N      -20.918    -164.460     473.436
  C      -22.538    -166.275     473.754
  C      -23.832    -166.567     473.859
  O      -23.879    -170.313     476.069
  O      -25.742    -169.001     477.232
  H      -25.048    -168.314     477.211
  H      -27.818    -164.692     472.086
  H      -21.747    -167.010     473.878
  H      -24.153    -167.581     474.078
  H      -26.734    -164.998     474.220
  H      -26.214    -166.197     471.635
  H      -26.214    -168.401     472.607
  H      -28.442    -167.367     474.438
  H      -20.739    -163.478     473.250
  H      -27.626    -169.029     476.028
  H      -20.141    -165.076     473.601
  H      -28.141    -169.850     474.534
  P      -28.116    -169.932     471.675
  C      -27.862    -169.768     469.095
  O      -28.675    -170.140     470.183
  O      -29.263    -170.567     472.605
  O      -26.788    -170.564     471.943
  H      -28.958    -171.421     472.963
  H      -28.127    -170.384     468.228
  H      -26.799    -169.906     469.319
  H      -28.048    -168.721     468.852
  H      -26.943    -172.596     478.288
  H      -27.176    -170.869     478.414
  H      -25.618    -171.569     478.783

 3  4  5  6  7  8  9  10  11  12  13  24  27  28  29  30  32 0
 6-311+G(2d,p)
 ****
 34  35 0
 6-311+G(2d,p)
 ****
 1  2  14  15  16  17  18  19  20  21  22  23  25  26 0
 3-21G
 ****
 31  33  36  37  38  39  40  41  42  43  44  45  46 0
 3-21G
 ****


