%nproc=1
%NoSave
%Mem=1900MB
#P OB98/GEN NMR

erre ene a

0 1
  C     -249.938      24.898    -220.959
  O     -250.856      23.891    -220.564
  P     -250.478      22.365    -220.906
  C     -249.672      22.182    -218.438
  O     -249.401      21.906    -219.810
  C     -249.910      20.881    -217.675
  O     -248.707      20.083    -217.634
  C     -250.315      21.076    -216.224
  O     -251.699      21.369    -216.080
  C     -250.005      19.705    -215.646
  O     -251.066      18.786    -215.959
  C     -248.724      19.322    -216.401
  N     -244.176      17.560    -215.070
  C     -245.063      17.085    -216.018
  N     -244.706      15.951    -216.659
  N     -246.187      17.676    -216.313
  C     -246.413      18.799    -215.590
  C     -245.607      19.366    -214.623
  C     -244.371      18.694    -214.296
  O     -243.569      19.034    -213.431
  N     -246.167      20.506    -214.113
  C     -247.302      20.635    -214.766
  N     -247.523      19.601    -215.637
  O     -249.610      22.489    -222.244
  O     -251.651      21.460    -221.080
  H     -251.870      19.131    -215.517
  H     -249.556      21.622    -222.690
  H     -243.316      17.062    -214.876
  H     -248.006      21.448    -214.627
  H     -248.713      18.261    -216.679
  H     -249.904      19.715    -214.558
  H     -243.885      15.414    -216.432
  H     -249.684      21.831    -215.732
  H     -245.371      15.549    -217.316
  H     -250.676      20.307    -218.216
  H     -250.557      22.815    -218.367
  H     -248.823      22.726    -218.008
  P     -252.110      22.924    -216.095
  C     -252.808      23.052    -218.591
  O     -251.871      23.417    -217.600
  O     -250.929      23.616    -215.267
  O     -253.457      23.207    -215.512
  H     -251.246      24.444    -214.854
  H     -252.645      23.678    -219.478
  H     -253.833      23.208    -218.243
  H     -252.669      22.004    -218.873
  H     -250.315      25.857    -220.670
  H     -249.812      24.869    -222.021
  H     -248.995      24.727    -220.484

 3  4  5  6  7  8  9  10  11  12  23  26  30  31 0
 6-311+G(2d,p)
 ****
 33  35  36  37  38 0
 6-311+G(2d,p)
 ****
 1  2  13  14  15  16  17  18  19  20  21  22  24  25 0
 3-21G
 ****
 27  28  29  32  34  39  40  41  42  43  44  45  46  47  48  49 0
 3-21G
 ****


