%nproc=1
%NoSave
%Mem=1900MB
#P OB98/GEN NMR

erre ene a

0 1
  C      208.886     158.866     -10.137
  O      210.103     158.691      -9.391
  P      210.530     159.808      -8.319
  C      212.101     161.244      -9.827
  O      210.909     161.179      -9.057
  C      212.179     162.556     -10.627
  O      213.461     162.643     -11.320
  C      211.084     162.722     -11.687
  O      210.788     164.126     -11.772
  C      211.775     162.254     -12.953
  O      211.145     162.712     -14.140
  C      213.176     162.829     -12.723
  N      214.219     162.218     -13.550
  C      214.346     162.652     -14.869
  O      213.601     163.472     -15.401
  N      215.365     162.082     -15.586
  C      216.222     161.116     -15.146
  O      217.094     160.623     -15.850
  C      216.024     160.675     -13.758
  C      215.050     161.238     -13.040
  O      211.959     159.276      -7.833
  O      209.609     159.955      -7.150
  H      211.272     163.679     -14.187
  H      212.017     159.323      -6.858
  H      215.480     162.395     -16.538
  H      216.685     159.915     -13.366
  H      214.892     160.938     -12.005
  H      213.163     163.911     -12.903
  H      211.780     161.158     -12.981
  H      210.172     162.158     -11.454
  H      212.152     163.389      -9.912
  H      212.125     160.402     -10.525
  H      212.963     161.160      -9.157
  P      209.254     164.590     -11.694
  C      208.613     164.204     -14.197
  O      208.461     163.821     -12.849
  O      209.379     166.085     -12.263
  O      208.659     164.532     -10.321
  H      209.933     166.136     -13.061
  H      209.657     164.437     -14.431
  H      207.986     165.076     -14.406
  H      208.289     163.377     -14.839
  H      208.753     158.038     -10.801
  H      208.942     159.772     -10.703
  H      208.058     158.918      -9.461

 3  4  5  6  7  8  9  10  11  12  13  23  28  29  30  31  32 0
 6-311+G(2d,p)
 ****
 33  34 0
 6-311+G(2d,p)
 ****
 1  2  14  15  16  17  18  19  20  21  22  24  25  26 0
 3-21G
 ****
 27  35  36  37  38  39  40  41  42  43  44  45 0
 3-21G
 ****


