%nproc=1
%NoSave
%Mem=1900MB
#P OB98/GEN NMR

erre ene a

0 1
  C     -409.040     650.935     414.406
  O     -408.591     650.825     413.051
  P     -408.940     652.059     412.074
  C     -407.734     653.276     410.117
  O     -407.834     652.097     410.913
  C     -406.318     653.442     409.557
  O     -405.327     653.636     410.602
  C     -405.847     652.236     408.748
  O     -406.395     652.286     407.445
  C     -404.321     652.433     408.766
  O     -403.901     653.346     407.735
  C     -404.086     653.034     410.159
  N     -400.098     651.630     412.974
  C     -400.172     652.549     411.930
  N     -399.033     653.191     411.614
  N     -401.276     652.797     411.270
  C     -402.344     652.080     411.702
  C     -402.385     651.175     412.727
  C     -401.173     650.885     413.456
  O     -401.048     650.115     414.392
  N     -403.676     650.681     412.912
  C     -404.357     651.206     411.903
  N     -403.606     652.115     411.184
  O     -408.614     653.349     412.966
  O     -410.359     652.060     411.610
  H     -402.945     653.517     407.846
  H     -409.446     653.792     413.213
  H     -399.218     651.470     413.435
  H     -405.374     650.994     411.682
  H     -403.351     653.859     410.121
  H     -403.806     651.483     408.589
  H     -398.132     653.048     412.085
  H     -406.118     651.311     409.271
  H     -399.065     653.874     410.854
  H     -406.312     654.344     408.920
  H     -408.014     654.149     410.712
  H     -408.470     653.215     409.304
  P     -407.588     651.271     407.104
  C     -409.768     651.423     405.705
  O     -408.502     651.951     405.967
  O     -408.508     651.338     408.425
  O     -407.162     649.862     406.828
  H     -408.781     650.430     408.679
  H     -410.435     652.230     405.344
  H     -410.220     650.976     406.604
  H     -409.695     650.663     404.914
  H     -408.750     650.061     414.950
  H     -410.106     651.028     414.422
  H     -408.600     651.799     414.859

 3  4  5  6  7  8  9  10  11  12  23  26  30  31 0
 6-311+G(2d,p)
 ****
 33  35  36  37  38 0
 6-311+G(2d,p)
 ****
 1  2  13  14  15  16  17  18  19  20  21  22  24  25 0
 3-21G
 ****
 27  28  29  32  34  39  40  41  42  43  44  45  46  47  48  49 0
 3-21G
 ****


