%nproc=1
%NoSave
%Mem=1900MB
#P OB98/GEN NMR

erre ene a

0 1
  C     -835.588     -80.151     -61.866
  O     -836.041     -80.603     -63.141
  P     -836.079     -82.176     -63.414
  C     -835.489     -81.696     -65.890
  O     -836.325     -82.422     -64.986
  C     -836.086     -81.691     -67.304
  O     -836.008     -83.041     -67.853
  C     -837.571     -81.302     -67.374
  O     -837.898     -79.923     -67.524
  C     -838.005     -81.990     -68.666
  O     -837.660     -81.165     -69.799
  C     -837.165     -83.269     -68.692
  N     -841.073     -86.424     -69.691
  C     -840.590     -85.342     -70.350
  N     -839.543     -84.560     -70.018
  C     -838.969     -84.985     -68.880
  C     -839.348     -86.069     -68.103
  C     -840.460     -86.802     -68.543
  N     -840.958     -87.899     -67.869
  N     -838.522     -86.193     -67.010
  C     -837.670     -85.189     -67.110
  N     -837.894     -84.437     -68.237
  O     -836.935     -82.990     -62.504
  O     -834.528     -82.597     -63.255
  H     -836.698     -81.013     -69.743
  H     -834.484     -83.472     -62.831
  H     -841.112     -85.077     -71.264
  H     -836.888     -84.972     -66.398
  H     -836.785     -83.501     -69.697
  H     -839.082     -82.157     -68.719
  H     -838.130     -81.723     -66.527
  H     -835.497     -81.035     -67.947
  H     -834.493     -82.159     -65.913
  H     -841.780     -88.342     -68.234
  H     -840.545     -88.167     -66.988
  H     -835.362     -80.689     -65.487
  P     -838.046     -78.960     -66.254
  C     -839.852     -77.095     -66.636
  O     -838.534     -77.543     -66.842
  O     -836.849     -78.886     -65.370
  O     -839.368     -79.520     -65.542
  H     -840.191     -79.375     -66.049
  H     -839.916     -76.047     -66.920
  H     -840.132     -77.196     -65.587
  H     -840.543     -77.674     -67.259
  H     -835.619     -79.082     -61.835
  H     -834.584     -80.483     -61.706
  H     -836.221     -80.549     -61.101

 3  4  5  6  7  8  9  10  11  12  22  25  29  30  31  32 0
 6-311+G(2d,p)
 ****
 33  36  37 0
 6-311+G(2d,p)
 ****
 1  2  13  14  15  16  17  18  19  20  21  23  24  26 0
 3-21G
 ****
 27  28  34  35  38  39  40  41  42  43  44  45  46  47  48 0
 3-21G
 ****


