%nproc=1
%NoSave
%Mem=1900MB
#P OB98/GEN NMR

erre ene a

0 1
  C     -458.314    -149.527     366.426
  O     -459.339    -148.649     366.006
  H     -458.646    -150.117     367.287
  H     -458.077    -150.214     365.608
  H     -457.409    -148.969     366.684
  P     -459.827    -147.549     367.067
  C     -460.273    -144.994     366.880
  O     -459.596    -146.123     366.356
  C     -459.713    -143.719     366.249
  O     -458.414    -143.422     366.799
  C     -459.518    -143.807     364.732
  O     -460.729    -143.591     364.019
  C     -458.536    -142.669     364.522
  O     -459.234    -141.411     364.559
  C     -457.614    -142.809     365.737
  N     -452.546    -142.795     365.099
  C     -453.423    -141.797     365.307
  N     -454.756    -141.886     365.452
  C     -455.165    -143.167     365.383
  C     -454.383    -144.281     365.168
  C     -453.001    -144.061     365.026
  N     -452.089    -145.079     364.798
  N     -455.156    -145.430     365.111
  C     -456.387    -145.006     365.333
  N     -456.451    -143.637     365.484
  O     -458.692    -147.580     368.198
  O     -461.200    -147.748     367.623
  H     -459.713    -141.323     363.716
  H     -459.039    -147.202     369.025
  H     -453.004    -140.799     365.346
  H     -457.262    -145.637     365.384
  H     -457.258    -141.843     366.112
  H     -458.026    -142.722     363.548
  H     -459.039    -144.752     364.448
  H     -460.387    -142.891     366.497
  H     -460.123    -144.952     367.963
  H     -451.161    -144.798     364.530
  H     -452.444    -146.003     364.600
  H     -461.345    -145.085     366.671
  P     -460.705    -143.839     362.440
  C     -462.531    -144.349     360.662
  O     -462.177    -144.302     362.033
  O     -459.833    -145.183     362.287
  O     -460.138    -142.707     361.636
  H     -459.401    -145.223     361.413
  H     -463.545    -144.677     360.566
  H     -461.885    -145.032     360.150
  H     -462.430    -143.374     360.234

 6  7  8  9  10  11  12  13  14  15  25  28  32  33  34  35 0
 6-311+G(2d,p)
 ****
 36  39  40 0
 6-311+G(2d,p)
 ****
 1  2  3  4  5  16  17  18  19  20  21  22  23  24 0
 3-21G
 ****
 26  27  29  30  31  37  38  41  42  43  44  45  46  47 0
 3-21G
 ****
 48 0
 3-21G
 ****


