%nproc=1
%NoSave
%Mem=1900MB
#P OB98/GEN NMR

erre ene a

0 1
  C     -126.978     410.003     400.688
  O     -126.981     411.201     401.474
  P     -125.639     412.053     401.664
  C     -124.582     410.585     403.472
  O     -124.452     411.076     402.137
  C     -123.391     409.724     403.923
  O     -123.299     409.687     405.368
  C     -123.414     408.274     403.432
  O     -122.045     407.898     403.230
  C     -124.010     407.540     404.620
  O     -123.751     406.145     404.588
  C     -123.361     408.309     405.789
  N     -124.103     408.157     407.037
  C     -123.816     407.027     407.806
  O     -123.009     406.192     407.410
  N     -124.478     406.856     409.001
  C     -125.425     407.682     409.336
  N     -126.056     407.438     410.513
  C     -125.830     408.835     408.508
  C     -125.124     409.011     407.395
  O     -125.791     413.294     402.489
  O     -125.211     412.437     400.159
  H     -122.823     406.000     404.866
  H     -124.736     413.290     400.165
  H     -126.638     409.474     408.815
  H     -125.333     409.838     406.709
  H     -122.339     407.959     405.950
  H     -125.099     407.682     404.641
  H     -124.009     408.124     402.522
  H     -122.475     410.221     403.560
  H     -125.773     406.626     411.044
  H     -125.500     409.983     403.534
  H     -126.877     407.944     410.810
  H     -124.711     411.430     404.158
  P     -121.432     407.699     401.770
  C     -122.918     405.673     401.266
  O     -122.564     406.987     400.882
  O     -120.102     407.025     401.737
  O     -121.346     409.177     401.145
  H     -120.731     409.176     400.387
  H     -123.817     405.376     400.737
  H     -123.103     405.607     402.347
  H     -122.104     404.981     400.988
  H     -127.960     409.579     400.680
  H     -126.290     409.301     401.111
  H     -126.681     410.234     399.686

 3  4  5  6  7  8  9  10  11  12  13  23  27  28  29  30  32 0
 6-311+G(2d,p)
 ****
 34  35 0
 6-311+G(2d,p)
 ****
 1  2  14  15  16  17  18  19  20  21  22  24  25  26 0
 3-21G
 ****
 31  33  36  37  38  39  40  41  42  43  44  45  46 0
 3-21G
 ****


