%nproc=1
%NoSave
%Mem=1900MB
#P OB98/GEN NMR

erre ene a

0 1
  C      -46.494      65.250     140.760
  O      -46.527      64.622     139.495
  H      -47.065      64.646     141.469
  H      -46.958      66.237     140.688
  H      -45.467      65.346     141.123
  P      -45.450      65.102     138.408
  C      -43.471      63.592     139.143
  O      -44.462      63.859     138.162
  C      -43.305      62.085     139.337
  O      -44.416      61.596     140.149
  C      -43.294      61.280     138.027
  O      -42.371      60.191     138.161
  C      -44.698      60.706     137.974
  O      -44.775      59.536     137.168
  C      -44.958      60.457     139.456
  N      -48.444      56.974     140.403
  C      -47.068      56.879     140.369
  N      -46.529      55.655     140.557
  N      -46.280      57.901     140.164
  C      -46.946      59.072     140.010
  C      -48.300      59.296     140.016
  C      -49.165      58.153     140.227
  O      -50.390      58.169     140.246
  N      -48.580      60.616     139.762
  C      -47.397      61.180     139.581
  N      -46.376      60.282     139.720
  O      -44.554      66.137     139.239
  O      -46.018      65.720     137.175
  H      -44.333      58.805     137.646
  H      -44.879      67.045     139.095
  H      -49.006      56.152     140.547
  H      -47.231      62.217     139.331
  H      -44.451      59.556     139.827
  H      -45.394      61.452     137.571
  H      -47.070      54.827     140.752
  H      -43.041      61.872     137.143
  H      -45.520      55.579     140.576
  H      -42.388      61.904     139.910
  H      -43.775      64.043     140.094
  H      -42.523      64.042     138.829
  P      -41.731      59.578     136.826
  C      -39.837      61.344     136.567
  O      -40.179      59.981     136.770
  O      -42.384      60.471     135.668
  O      -42.022      58.128     136.626
  H      -42.527      59.927     134.872
  H      -38.772      61.446     136.555
  H      -40.243      61.936     137.361
  H      -40.238      61.677     135.633

 6  7  8  9  10  11  12  13  14  15  26  29  33  34 0
 6-311+G(2d,p)
 ****
 36  38  39  40  41 0
 6-311+G(2d,p)
 ****
 1  2  3  4  5  16  17  18  19  20  21  22  23  24  25 0
 3-21G
 ****
 27  28  30  31  32  35  37  42  43  44  45  46  47 0
 3-21G
 ****
 48  49 0
 3-21G
 ****


