%nproc=1
%NoSave
%Mem=1900MB
#P OB98/GEN NMR

erre ene a

0 1
  C     -244.716     130.645    -138.085
  O     -244.885     129.424    -137.397
  H     -245.530     131.319    -137.805
  H     -244.762     130.469    -139.164
  H     -243.765     131.117    -137.829
  P     -243.661     128.393    -137.340
  C     -243.528     127.699    -139.827
  O     -242.931     128.444    -138.771
  C     -242.569     127.572    -141.020
  O     -243.227     126.840    -142.085
  C     -242.223     128.951    -141.577
  O     -240.933     128.979    -142.189
  C     -243.282     129.166    -142.645
  O     -242.906     130.128    -143.627
  C     -243.440     127.742    -143.188
  N     -246.378     128.145    -147.330
  C     -245.119     128.660    -147.104
  N     -244.578     129.400    -148.102
  N     -244.454     128.482    -145.991
  C     -245.148     127.787    -145.051
  C     -246.410     127.247    -145.157
  C     -247.117     127.418    -146.408
  O     -248.244     126.997    -146.659
  N     -246.783     126.628    -143.988
  C     -245.757     126.794    -143.182
  N     -244.731     127.482    -143.785
  O     -244.371     126.958    -137.362
  O     -242.747     128.538    -136.162
  H     -242.115     129.788    -144.087
  H     -243.794     126.286    -136.953
  H     -246.838     128.301    -148.216
  H     -245.703     126.436    -142.158
  H     -242.672     127.536    -143.951
  H     -244.195     129.539    -142.162
  H     -245.115     129.707    -148.896
  H     -242.266     129.729    -140.808
  H     -243.802     130.016    -147.844
  H     -241.685     126.992    -140.734
  H     -244.434     128.236    -140.130
  H     -243.830     126.713    -139.466
  P     -239.739     129.676    -141.377
  C     -240.447     132.176    -141.736
  O     -240.267     131.095    -140.843
  O     -238.680     130.051    -142.511
  O     -239.144     128.804    -140.316
  H     -237.920     129.439    -142.480
  H     -240.802     133.029    -141.196
  H     -241.162     131.905    -142.485
  H     -239.514     132.412    -142.203

 6  7  8  9  10  11  12  13  14  15  26  29  33  34 0
 6-311+G(2d,p)
 ****
 36  38  39  40  41 0
 6-311+G(2d,p)
 ****
 1  2  3  4  5  16  17  18  19  20  21  22  23  24  25 0
 3-21G
 ****
 27  28  30  31  32  35  37  42  43  44  45  46  47 0
 3-21G
 ****
 48  49 0
 3-21G
 ****


