%nproc=1
%NoSave
%Mem=1900MB
#P OB98/GEN NMR

erre ene a

0 1
  C       19.405      27.430     -60.238
  O       19.241      28.698     -59.627
  P       18.563      28.741     -58.170
  C       16.508      30.095     -59.101
  O       16.993      28.944     -58.425
  C       15.379      30.742     -58.293
  O       14.327      29.778     -58.061
  C       15.785      31.231     -56.910
  O       16.498      32.461     -56.974
  C       14.433      31.320     -56.217
  O       13.757      32.532     -56.587
  C       13.694      30.099     -56.806
  N       13.676      28.944     -55.913
  C       12.998      29.109     -54.709
  O       12.432      30.154     -54.389
  N       13.008      28.024     -53.864
  C       13.667      26.849     -54.073
  O       13.677      25.930     -53.266
  C       14.394      26.746     -55.348
  C       14.367      27.779     -56.193
  O       19.080      30.165     -57.649
  O       18.936      27.576     -57.315
  H       19.259      30.778     -58.384
  H       13.996      32.709     -57.520
  H       12.500      28.111     -52.994
  H       14.937      25.830     -55.547
  H       14.906      27.728     -57.131
  H       12.656      30.365     -57.047
  H       14.514      31.310     -55.123
  H       16.403      30.476     -56.414
  H       14.959      31.567     -58.886
  H       16.133      29.802     -60.084
  H       17.329      30.804     -59.240
  P       17.499      32.771     -55.755
  C       16.358      34.996     -54.991
  O       16.672      33.652     -54.702
  O       18.507      33.812     -56.440
  O       18.161      31.555     -55.194
  H       18.049      34.466     -56.998
  H       15.521      35.303     -54.363
  H       16.076      35.125     -56.040
  H       17.220      35.628     -54.768
  H       19.865      27.553     -61.196
  H       18.448      26.966     -60.359
  H       20.025      26.814     -59.621

 3  4  5  6  7  8  9  10  11  12  13  24  28  29  30  31  32 0
 6-311+G(2d,p)
 ****
 33  34 0
 6-311+G(2d,p)
 ****
 1  2  14  15  16  17  18  19  20  21  22  23  25  26  27 0
 3-21G
 ****
 35  36  37  38  39  40  41  42  43  44  45 0
 3-21G
 ****


