%nproc=1
%NoSave
%Mem=1900MB
#P OB98/GEN NMR

erre ene a

0 1
  C      -91.496      23.058       0.374
  O      -90.904      23.550       1.559
  H      -91.872      22.049       0.565
  H      -90.756      23.008      -0.427
  H      -92.334      23.691       0.067
  P      -90.388      25.066       1.593
  C      -87.911      24.421       1.293
  O      -89.027      25.114       0.746
  C      -86.625      25.183       0.982
  O      -86.322      25.100      -0.430
  C      -86.696      26.671       1.304
  O      -86.596      26.890       2.697
  C      -85.528      27.190       0.481
  O      -84.278      26.950       1.147
  C      -85.637      26.319      -0.795
  N      -86.327      27.003      -1.891
  C      -85.532      27.790      -2.718
  O      -84.321      27.926      -2.560
  N      -86.191      28.459      -3.717
  C      -87.544      28.485      -3.900
  O      -88.106      29.265      -4.662
  C      -88.323      27.578      -3.045
  C      -87.690      26.900      -2.084
  O      -90.314      25.696       2.944
  O      -91.425      25.837       0.645
  H      -92.077      26.309       1.197
  H      -84.281      27.508       1.949
  H      -85.631      29.071      -4.291
  H      -89.391      27.520      -3.203
  H      -88.248      26.247      -1.423
  H      -84.638      26.029      -1.148
  H      -85.591      28.264       0.298
  H      -87.625      27.098       0.909
  H      -85.804      24.705       1.531
  H      -87.863      23.425       0.838
  H      -88.049      24.314       2.373
  P      -87.533      27.954       3.438
  C      -85.854      29.823       2.934
  O      -87.209      29.403       2.839
  O      -87.518      27.882       4.929
  O      -89.000      27.650       2.869
  H      -89.611      27.515       3.618
  H      -85.752      30.798       2.506
  H      -85.229      29.134       2.405
  H      -85.561      29.852       3.963

 6  7  8  9  10  11  12  13  14  15  16  27  31  32  33  34  35 0
 6-311+G(2d,p)
 ****
 36  37 0
 6-311+G(2d,p)
 ****
 1  2  3  4  5  17  18  19  20  21  22  23  24  25 0
 3-21G
 ****
 26  28  29  30  38  39  40  41  42  43  44  45 0
 3-21G
 ****


