%nproc=1
%NoSave
%Mem=1900MB
#P OB98/GEN NMR

erre ene a

0 1
  C      303.090    -897.720    -895.740
  O      302.128    -898.160    -896.700
  P      300.605    -898.370    -896.210
  C      300.162    -896.230    -897.580
  O      299.786    -897.030    -896.460
  C      299.180    -895.030    -897.760
  O      297.859    -895.530    -898.080
  C      299.090    -894.160    -896.510
  O      299.269    -892.770    -896.770
  C      297.739    -894.540    -895.910
  O      297.184    -893.520    -895.080
  C      296.909    -894.920    -897.140
  N      295.805    -895.830    -896.790
  C      294.842    -895.310    -895.950
  O      294.919    -894.200    -895.410
  N      293.829    -896.170    -895.620
  C      293.674    -897.460    -896.030
  O      292.743    -898.160    -895.690
  C      294.755    -897.980    -896.890
  C      295.755    -897.140    -897.230
  O      300.440    -899.000    -894.880
  O      300.013    -899.340    -897.370
  H      296.329    -893.840    -894.720
  H      299.426    -900.000    -896.920
  H      293.088    -895.790    -895.020
  H      294.717    -899.000    -897.210
  H      296.578    -897.490    -897.850
  H      296.479    -894.040    -897.620
  H      297.890    -895.420    -895.280
  H      299.883    -894.400    -895.770
  H      299.539    -894.460    -898.620
  H      300.153    -896.840    -898.480
  H      301.188    -895.870    -897.450
  P      300.664    -891.980    -896.610
  C      301.167    -891.340    -899.070
  O      301.497    -892.160    -897.980
  O      301.439    -892.300    -895.350
  O      300.227    -890.440    -896.600
  H      300.755    -889.950    -895.970
  H      301.527    -891.830    -900.000
  H      301.626    -890.360    -898.990
  H      300.053    -891.220    -899.180
  H      304.047    -897.627    -896.210
  H      303.151    -898.433    -894.944
  H      302.793    -896.770    -895.347

 3  4  5  6  7  8  9  10  11  12  13  23  28  29  30  31  32 0
 6-311+G(2d,p)
 ****
 33  34 0
 6-311+G(2d,p)
 ****
 1  2  14  15  16  17  18  19  20  21  22  24  25  26  27 0
 3-21G
 ****
 35  36  37  38  39  40  41  42  43  44  45 0
 3-21G
 ****


