%nproc=1
%NoSave
%Mem=1900MB
#P OB98/GEN NMR

erre ene a

0 1
  C     -913.079     575.249    1123.604
  O     -914.490     575.328    1123.471
  H     -912.680     574.574    1122.840
  H     -912.798     574.852    1124.585
  H     -912.635     576.240    1123.467
  P     -915.317     576.128    1124.590
  C     -917.745     577.008    1124.641
  O     -916.627     576.656    1123.837
  C     -918.708     577.917    1123.879
  O     -918.024     579.137    1123.501
  C     -919.195     577.281    1122.567
  O     -920.195     576.312    1122.823
  C     -919.672     578.535    1121.823
  O     -920.969     578.946    1122.264
  C     -918.582     579.572    1122.229
  N     -917.528     579.701    1121.224
  C     -917.797     580.611    1120.193
  O     -918.846     581.251    1120.169
  N     -916.841     580.756    1119.205
  C     -915.743     580.081    1119.246
  N     -914.847     580.293    1118.241
  C     -915.421     579.116    1120.321
  C     -916.353     578.971    1121.264
  O     -914.580     577.178    1125.348
  O     -915.894     574.971    1125.547
  H     -920.897     579.045    1123.227
  H     -915.253     574.782    1126.264
  H     -914.486     578.563    1120.320
  H     -916.196     578.301    1122.091
  H     -919.028     580.557    1122.391
  H     -919.710     578.352    1120.739
  H     -918.361     576.857    1122.009
  H     -919.548     578.167    1124.531
  H     -915.097     580.933    1117.509
  H     -917.368     577.520    1125.531
  H     -913.932     579.869    1118.211
  H     -918.284     576.107    1124.986
  P     -920.746     575.400    1121.616
  C     -922.035     573.170    1121.513
  O     -921.225     574.030    1122.307
  O     -919.826     575.243    1120.460
  O     -922.132     576.120    1121.241
  H     -921.986     576.952    1120.746
  H     -922.289     572.297    1122.078
  H     -921.496     572.882    1120.635
  H     -922.930     573.684    1121.230

 6  7  8  9  10  11  12  13  14  15  16  26  30  31  32  33  35 0
 6-311+G(2d,p)
 ****
 37  38 0
 6-311+G(2d,p)
 ****
 1  2  3  4  5  17  18  19  20  21  22  23  24  25 0
 3-21G
 ****
 27  28  29  34  36  39  40  41  42  43  44  45  46 0
 3-21G
 ****


