%nproc=1
%NoSave
%Mem=1900MB
#P OB98/GEN NMR

erre ene a

0 1
  C      829.894    1085.157     776.871
  O      830.982    1084.644     776.147
  P      832.502    1084.972     776.584
  C      832.988    1082.762     775.355
  O      833.425    1084.111     775.595
  C      833.738    1082.190     774.139
  O      835.146    1082.235     774.406
  C      833.417    1080.737     773.789
  O      832.243    1080.555     772.993
  C      834.648    1080.391     772.959
  O      834.498    1080.915     771.618
  C      835.758    1081.119     773.698
  N      838.321    1076.748     774.336
  C      837.794    1077.318     773.243
  N      837.117    1078.478     773.154
  C      837.024    1079.081     774.364
  C      837.528    1078.594     775.566
  C      838.203    1077.366     775.531
  N      838.748    1076.767     776.666
  N      837.242    1079.478     776.588
  C      836.598    1080.463     776.019
  N      836.450    1080.263     774.666
  O      832.776    1084.804     778.048
  O      832.730    1086.479     776.064
  H      835.181    1080.499     771.072
  H      833.512    1086.870     776.520
  H      837.933    1076.791     772.294
  H      836.189    1081.349     776.532
  H      836.522    1081.541     773.025
  H      834.783    1079.296     772.859
  H      833.394    1080.124     774.696
  H      833.514    1082.871     773.286
  H      831.918    1082.773     775.165
  H      839.334    1075.946     776.510
  H      838.816    1077.328     777.507
  H      833.180    1082.159     776.247
  P      831.663    1079.046     772.890
  C      829.333    1079.944     772.078
  O      830.456    1079.129     771.836
  O      831.341    1078.404     774.196
  O      832.825    1078.312     772.065
  H      832.949    1078.601     771.140
  H      828.696    1079.992     771.170
  H      829.634    1080.953     772.333
  H      828.738    1079.521     772.910
  H      828.980    1084.826     776.423
  H      829.930    1086.226     776.860
  H      829.942    1084.809     777.882

 3  4  5  6  7  8  9  10  11  12  22  25  29  30  31  32 0
 6-311+G(2d,p)
 ****
 33  36  37 0
 6-311+G(2d,p)
 ****
 1  2  13  14  15  16  17  18  19  20  21  23  24  26 0
 3-21G
 ****
 27  28  34  35  38  39  40  41  42  43  44  45  46  47  48 0
 3-21G
 ****


