%nproc=1
%NoSave
%Mem=1900MB
#P OB98/GEN NMR

erre ene a

0 1
  C     -231.030    -223.032     363.215
  O     -229.944    -223.567     362.487
  H     -231.379    -222.125     362.713
  H     -230.697    -222.768     364.221
  H     -231.855    -223.746     363.270
  P     -229.528    -225.084     362.797
  C     -229.098    -225.686     360.309
  O     -229.868    -225.933     361.476
  C     -229.901    -224.860     359.304
  O     -230.174    -223.551     359.891
  C     -229.185    -224.631     357.964
  O     -230.156    -224.656     356.910
  C     -228.667    -223.211     358.098
  O     -228.439    -222.595     356.836
  C     -229.793    -222.575     358.906
  N     -229.403    -217.648     358.041
  C     -230.044    -218.635     357.323
  N     -230.624    -218.272     356.160
  N     -230.110    -219.882     357.711
  C     -229.504    -220.106     358.902
  C     -228.832    -219.218     359.705
  C     -228.751    -217.843     359.258
  O     -228.179    -216.928     359.837
  N     -228.304    -219.852     360.804
  C     -228.641    -221.121     360.651
  N     -229.368    -221.325     359.511
  O     -230.650    -225.547     363.841
  O     -228.151    -225.271     363.339
  H     -229.304    -222.473     356.395
  H     -230.322    -225.428     364.752
  H     -229.366    -216.706     357.691
  H     -228.368    -221.925     361.318
  H     -230.674    -222.347     358.290
  H     -227.726    -223.206     358.662
  H     -230.643    -217.327     355.811
  H     -228.392    -225.357     357.753
  H     -231.134    -218.979     355.643
  H     -230.871    -225.347     359.146
  H     -228.827    -226.641     359.849
  H     -228.181    -225.158     360.589
  P     -230.059    -225.829     355.823
  C     -232.541    -226.536     355.486
  O     -231.278    -226.845     356.056
  O     -228.785    -226.668     356.311
  O     -229.891    -225.345     354.422
  H     -228.309    -227.025     355.537
  H     -233.241    -227.307     355.731
  H     -232.445    -226.467     354.423
  H     -232.889    -225.602     355.874

 6  7  8  9  10  11  12  13  14  15  26  29  33  34 0
 6-311+G(2d,p)
 ****
 36  38  39  40  41 0
 6-311+G(2d,p)
 ****
 1  2  3  4  5  16  17  18  19  20  21  22  23  24  25 0
 3-21G
 ****
 27  28  30  31  32  35  37  42  43  44  45  46  47 0
 3-21G
 ****
 48  49 0
 3-21G
 ****


