%nproc=1
%NoSave
%Mem=1900MB
#P OB98/GEN NMR

erre ene a

0 1
  C     -289.883     566.135     700.759
  O     -289.163     564.956     700.469
  H     -289.503     566.938     700.108
  H     -289.728     566.437     701.798
  H     -290.948     565.997     700.557
  P     -289.480     563.624     701.306
  C     -291.604     562.290     701.858
  O     -291.082     563.501     701.314
  C     -293.068     562.095     701.472
  O     -293.863     563.200     701.993
  C     -293.299     562.045     699.942
  O     -294.153     560.942     699.628
  C     -294.024     563.349     699.647
  O     -294.810     563.298     698.459
  C     -294.802     563.557     700.956
  N     -295.290     564.923     701.096
  C     -296.548     565.188     700.542
  O     -297.177     564.296     699.976
  N     -297.032     566.469     700.589
  C     -296.305     567.409     701.100
  N     -296.830     568.671     701.077
  C     -294.955     567.179     701.670
  C     -294.521     565.927     701.639
  O     -288.830     563.555     702.648
  O     -289.036     562.417     700.341
  H     -294.217     563.147     697.697
  H     -288.869     561.618     700.887
  H     -294.386     568.013     702.080
  H     -293.543     565.661     702.030
  H     -295.659     562.873     701.010
  H     -293.284     564.158     699.528
  H     -292.372     561.961     699.372
  H     -293.442     561.190     701.958
  H     -297.754     568.787     700.674
  H     -291.491     562.323     702.953
  H     -296.350     569.487     701.426
  H     -291.017     561.449     701.467
  P     -293.415     559.563     699.286
  C     -292.765     557.407     700.595
  O     -293.522     558.601     700.581
  O     -291.867     559.967     699.224
  O     -293.869     558.938     697.996
  H     -291.543     559.916     698.310
  H     -292.941     556.884     701.511
  H     -291.725     557.643     700.514
  H     -293.056     556.790     699.770

 6  7  8  9  10  11  12  13  14  15  16  26  30  31  32  33  35 0
 6-311+G(2d,p)
 ****
 37  38 0
 6-311+G(2d,p)
 ****
 1  2  3  4  5  17  18  19  20  21  22  23  24  25 0
 3-21G
 ****
 27  28  29  34  36  39  40  41  42  43  44  45  46 0
 3-21G
 ****


