%nproc=1
%NoSave
%Mem=1900MB
#P OB98/GEN NMR

erre ene a

0 1
  C      198.035     427.237     -14.798
  O      197.624     428.180     -13.825
  H      197.155     426.809     -15.284
  H      198.637     427.750     -15.554
  H      198.634     426.445     -14.344
  P      196.985     427.607     -12.471
  C      198.229     428.982     -10.651
  O      197.036     428.807     -11.403
  C      198.446     430.458     -10.319
  O      198.813     431.157     -11.541
  C      197.208     431.159      -9.730
  O      197.644     432.068      -8.715
  C      196.667     431.955     -10.907
  O      195.910     433.090     -10.501
  C      197.956     432.307     -11.647
  N      198.001     436.100     -15.039
  C      198.568     435.971     -13.821
  N      198.553     434.898     -12.998
  C      197.919     433.866     -13.578
  C      197.296     433.843     -14.820
  C      197.338     435.038     -15.558
  N      196.704     435.197     -16.773
  N      196.709     432.609     -15.038
  C      196.949     431.918     -13.942
  N      197.677     432.634     -13.032
  O      198.120     426.599     -11.955
  O      195.664     426.933     -12.617
  H      195.763     433.666     -11.275
  H      197.982     425.719     -12.353
  H      199.094     436.846     -13.451
  H      196.599     430.910     -13.744
  H      198.475     433.170     -11.203
  H      196.026     431.312     -11.519
  H      196.463     430.472      -9.314
  H      199.297     430.541      -9.635
  H      199.079     428.623     -11.244
  H      196.696     436.121     -17.174
  H      196.117     434.454     -17.116
  H      198.166     428.388      -9.733
  P      196.712     432.231      -7.420
  C      198.062     431.430      -5.341
  O      197.644     432.526      -6.153
  O      196.185     430.747      -7.158
  O      195.580     433.194      -7.607
  H      195.287     430.764      -6.787
  H      198.675     431.792      -4.542
  H      198.623     430.739      -5.935
  H      197.202     430.937      -4.937

 6  7  8  9  10  11  12  13  14  15  25  28  32  33  34  35 0
 6-311+G(2d,p)
 ****
 36  39  40 0
 6-311+G(2d,p)
 ****
 1  2  3  4  5  16  17  18  19  20  21  22  23  24 0
 3-21G
 ****
 26  27  29  30  31  37  38  41  42  43  44  45  46  47 0
 3-21G
 ****
 48 0
 3-21G
 ****


