%nproc=1
%NoSave
%Mem=1900MB
#P OB98/GEN NMR

erre ene a

0 1
  C     -552.739      89.964    -494.346
  O     -552.599      91.369    -494.403
  H     -552.138      89.494    -495.133
  H     -552.380      89.609    -493.376
  H     -553.789      89.680    -494.457
  P     -553.063      92.070    -495.772
  C     -550.887      91.977    -497.179
  O     -552.174      91.424    -496.949
  C     -550.131      91.143    -498.216
  O     -550.809      91.287    -499.494
  C     -548.659      91.561    -498.407
  O     -547.798      90.417    -498.328
  C     -548.609      92.108    -499.829
  O     -547.380      91.834    -500.481
  C     -549.789      91.408    -500.496
  N     -548.781      92.632    -505.340
  C     -548.348      91.607    -504.570
  N     -548.734      91.276    -503.318
  C     -549.692      92.120    -502.877
  C     -550.246      93.197    -503.559
  C     -549.742      93.451    -504.839
  N     -550.140      94.525    -505.610
  N     -551.193      93.833    -502.778
  C     -551.179      93.178    -501.628
  N     -550.277      92.147    -501.638
  O     -552.471      93.558    -495.634
  O     -554.536      92.083    -495.997
  H     -547.395      90.889    -500.734
  H     -553.215      94.189    -495.647
  H     -547.588      90.972    -505.014
  H     -551.769      93.433    -500.753
  H     -549.530      90.395    -500.828
  H     -548.758      93.191    -499.796
  H     -548.336      92.314    -497.681
  H     -550.194      90.086    -497.928
  H     -550.309      91.981    -496.239
  H     -549.637      94.707    -506.463
  H     -550.759      95.207    -505.195
  H     -551.004      93.011    -497.524
  P     -547.113      90.146    -496.895
  C     -544.805      91.351    -497.088
  O     -546.138      91.389    -496.566
  O     -546.110      88.935    -497.196
  O     -548.084      89.798    -495.817
  H     -546.307      88.186    -496.601
  H     -544.280      92.235    -496.791
  H     -544.842      91.300    -498.156
  H     -544.297      90.490    -496.707

 6  7  8  9  10  11  12  13  14  15  25  28  32  33  34  35 0
 6-311+G(2d,p)
 ****
 36  39  40 0
 6-311+G(2d,p)
 ****
 1  2  3  4  5  16  17  18  19  20  21  22  23  24 0
 3-21G
 ****
 26  27  29  30  31  37  38  41  42  43  44  45  46  47  48 0
 3-21G
 ****


