%nproc=1
%NoSave
%Mem=1900MB
#P OB98/GEN NMR

erre ene a

0 1
  C     -331.476     556.258     101.673
  O     -332.301     556.662     102.749
  H     -330.802     557.082     101.419
  H     -332.076     556.012     100.792
  H     -330.875     555.393     101.967
  P     -333.559     555.737     103.125
  C     -332.786     555.390     105.558
  O     -333.042     554.769     104.301
  C     -332.473     554.345     106.634
  O     -331.993     554.984     107.838
  C     -333.676     553.527     107.077
  O     -334.201     552.671     106.092
  C     -333.188     552.945     108.395
  O     -332.387     551.774     108.207
  C     -332.314     554.102     108.940
  N     -332.965     554.821     110.031
  C     -332.691     554.357     111.314
  O     -331.965     553.390     111.547
  N     -333.308     555.030     112.330
  C     -334.191     556.061     112.193
  O     -334.725     556.610     113.152
  C     -334.471     556.481     110.811
  C     -333.854     555.851     109.809
  O     -334.193     555.009     101.976
  O     -334.554     556.733     103.883
  H     -331.703     552.004     107.550
  H     -335.464     556.350     103.949
  H     -333.108     554.723     113.271
  H     -335.172     557.291     110.664
  H     -334.045     556.147     108.775
  H     -331.358     553.713     109.313
  H     -334.014     552.669     109.050
  H     -334.486     554.224     107.328
  H     -331.668     553.701     106.260
  H     -333.684     555.945     105.846
  H     -331.949     556.089     105.458
  P     -335.484     551.748     106.311
  C     -337.129     553.478     105.242
  O     -336.781     552.688     106.374
  O     -335.360     550.653     107.316
  O     -335.642     551.059     104.857
  H     -335.988     550.156     105.000
  H     -338.014     554.039     105.457
  H     -337.307     552.839     104.402
  H     -336.327     554.150     105.016

 6  7  8  9  10  11  12  13  14  15  16  26  31  32  33  34  35 0
 6-311+G(2d,p)
 ****
 36  37 0
 6-311+G(2d,p)
 ****
 1  2  3  4  5  17  18  19  20  21  22  23  24  25 0
 3-21G
 ****
 27  28  29  30  38  39  40  41  42  43  44  45 0
 3-21G
 ****


