%nproc=1
%NoSave
%Mem=1900MB
#P OB98/GEN NMR

erre ene a

0 1
  C     -277.771    -325.880     285.742
  O     -277.986    -326.612     286.951
  P     -279.482    -327.116     287.231
  C     -279.887    -326.168     289.617
  O     -279.655    -327.318     288.814
  C     -279.736    -326.519     291.096
  O     -278.349    -326.646     291.476
  C     -280.316    -325.466     292.030
  O     -281.734    -325.525     292.053
  C     -279.644    -325.850     293.345
  O     -280.319    -326.967     293.949
  C     -278.245    -326.283     292.876
  N     -275.185    -323.885     296.201
  C     -276.080    -324.886     296.357
  N     -276.858    -325.468     295.420
  C     -276.636    -324.924     294.213
  C     -275.753    -323.903     293.900
  C     -275.005    -323.371     294.963
  N     -274.103    -322.341     294.808
  N     -275.803    -323.610     292.555
  C     -276.720    -324.425     292.065
  N     -277.242    -325.245     293.027
  O     -279.484    -328.609     286.656
  O     -280.529    -326.272     286.583
  H     -281.243    -326.692     294.119
  H     -280.007    -328.649     285.834
  H     -276.187    -325.269     297.368
  H     -277.035    -324.456     291.029
  H     -277.882    -327.165     293.415
  H     -279.637    -325.037     294.078
  H     -279.987    -324.466     291.721
  H     -280.236    -327.484     291.270
  H     -280.889    -325.772     289.431
  H     -273.667    -321.964     295.634
  H     -274.027    -321.890     293.907
  H     -279.180    -325.386     289.322
  P     -282.538    -324.159     291.820
  C     -283.762    -324.020     294.074
  O     -283.870    -324.349     292.701
  O     -283.077    -324.351     290.329
  O     -281.761    -322.914     292.078
  H     -283.450    -325.244     290.190
  H     -284.739    -324.161     294.545
  H     -283.462    -322.976     294.188
  H     -283.037    -324.675     294.563
  H     -276.740    -325.602     285.672
  H     -278.378    -324.999     285.746
  H     -278.033    -326.491     284.904

 3  4  5  6  7  8  9  10  11  12  22  25  29  30  31  32 0
 6-311+G(2d,p)
 ****
 33  36  37 0
 6-311+G(2d,p)
 ****
 1  2  13  14  15  16  17  18  19  20  21  23  24  26 0
 3-21G
 ****
 27  28  34  35  38  39  40  41  42  43  44  45  46  47  48 0
 3-21G
 ****


