%nproc=1
%NoSave
%Mem=1900MB
#P OB98/GEN NMR

erre ene a

0 1
  C       -1.022    -261.948      34.393
  O        0.350    -262.111      34.085
  H       -1.599    -262.663      33.805
  H       -1.359    -260.937      34.152
  H       -1.191    -262.152      35.457
  P        1.379    -260.998      34.609
  C        2.202    -262.678      36.386
  O        1.674    -261.376      36.145
  C        3.354    -262.632      37.387
  O        4.457    -261.864      36.864
  C        3.004    -261.962      38.708
  O        2.063    -262.656      39.495
  C        4.380    -261.663      39.281
  O        4.949    -262.792      39.943
  C        5.183    -261.335      38.001
  N        5.446    -259.906      37.857
  C        6.214    -259.325      38.855
  O        6.647    -259.942      39.827
  N        6.452    -257.984      38.718
  C        5.962    -257.179      37.732
  O        6.188    -255.978      37.677
  C        5.117    -257.849      36.726
  C        4.901    -259.160      36.828
  O        0.952    -259.573      34.405
  O        2.754    -261.370      33.876
  H        5.129    -263.467      39.258
  H        3.397    -260.621      33.922
  H        7.022    -257.544      39.425
  H        4.701    -257.241      35.936
  H        4.288    -259.675      36.098
  H        6.150    -261.859      38.015
  H        4.355    -260.844      40.004
  H        2.546    -260.987      38.486
  H        3.710    -263.657      37.547
  H        2.575    -263.067      35.431
  H        1.408    -263.333      36.750
  P        0.730    -262.002      40.067
  C       -1.152    -263.733      39.508
  O       -0.511    -262.505      39.181
  O        0.794    -260.551      40.425
  O        0.524    -262.835      41.440
  H        0.125    -262.222      42.087
  H       -1.952    -263.912      38.820
  H       -1.543    -263.677      40.502
  H       -0.443    -264.532      39.448

 6  7  8  9  10  11  12  13  14  15  16  26  31  32  33  34  35 0
 6-311+G(2d,p)
 ****
 36  37 0
 6-311+G(2d,p)
 ****
 1  2  3  4  5  17  18  19  20  21  22  23  24  25 0
 3-21G
 ****
 27  28  29  30  38  39  40  41  42  43  44  45 0
 3-21G
 ****


