%nproc=1
%NoSave
%Mem=1900MB
#P OB98/GEN NMR

erre ene a

0 1
  C     -332.844     342.748    -644.821
  O     -332.791     341.346    -644.682
  H     -333.754     343.115    -644.341
  H     -332.877     343.018    -645.880
  H     -331.979     343.216    -644.345
  P     -331.457     340.604    -645.178
  C     -330.441     339.680    -642.975
  O     -330.405     340.693    -643.968
  C     -331.413     340.064    -641.858
  O     -332.725     340.297    -642.439
  C     -331.563     338.992    -640.776
  O     -331.682     339.638    -639.505
  C     -332.876     338.312    -641.122
  O     -333.491     337.696    -639.992
  C     -333.670     339.469    -641.738
  N     -334.724     338.984    -642.624
  C     -335.914     338.566    -642.016
  O     -336.030     338.609    -640.791
  N     -336.915     338.056    -642.801
  C     -336.716     337.897    -644.073
  N     -337.737     337.355    -644.793
  C     -335.455     338.260    -644.747
  C     -334.516     338.799    -643.971
  O     -330.854     341.612    -646.264
  O     -331.655     339.229    -645.726
  H     -334.403     337.431    -640.245
  H     -330.378     341.130    -646.967
  H     -335.328     338.082    -645.803
  H     -333.552     339.089    -644.376
  H     -334.128     340.083    -640.951
  H     -332.698     337.531    -641.872
  H     -330.726     338.287    -640.750
  H     -331.083     341.014    -641.423
  H     -338.581     337.105    -644.293
  H     -329.441     339.564    -642.549
  H     -337.679     337.146    -645.777
  H     -330.743     338.733    -643.432
  P     -330.421     339.528    -638.520
  C     -329.847     342.051    -638.317
  O     -329.456     340.776    -638.803
  O     -329.607     338.278    -639.100
  O     -330.794     339.326    -637.090
  H     -329.692     337.517    -638.499
  H     -329.107     342.776    -638.583
  H     -329.943     342.013    -637.252
  H     -330.786     342.325    -638.750

 6  7  8  9  10  11  12  13  14  15  16  26  30  31  32  33  35 0
 6-311+G(2d,p)
 ****
 37  38 0
 6-311+G(2d,p)
 ****
 1  2  3  4  5  17  18  19  20  21  22  23  24  25 0
 3-21G
 ****
 27  28  29  34  36  39  40  41  42  43  44  45  46 0
 3-21G
 ****


