%nproc=1
%NoSave
%Mem=1900MB
#P OB98/GEN NMR

erre ene a

0 1
  C      281.643     -11.248    -335.969
  O      281.037     -11.046    -334.714
  H      281.775     -12.324    -336.122
  H      282.629     -10.776    -335.999
  H      281.015     -10.856    -336.771
  P      280.762      -9.547    -334.207
  C      279.055      -9.895    -332.321
  O      280.425      -9.686    -332.637
  C      278.892     -10.387    -330.883
  O      279.683     -11.592    -330.689
  C      279.339      -9.368    -329.826
  O      278.349      -9.267    -328.800
  C      280.608      -9.979    -329.251
  O      280.897      -9.528    -327.931
  C      280.296     -11.473    -329.394
  N      281.491     -12.297    -329.264
  C      281.818     -12.709    -327.970
  O      281.110     -12.383    -327.016
  N      282.965     -13.435    -327.776
  C      283.743     -13.685    -328.784
  N      284.879     -14.383    -328.520
  C      283.450     -13.244    -330.162
  C      282.316     -12.564    -330.330
  O      279.751      -8.795    -335.005
  O      282.201      -8.847    -334.197
  H      280.114      -9.701    -327.365
  H      282.081      -7.871    -334.243
  H      284.134     -13.473    -330.965
  H      282.017     -12.198    -331.306
  H      279.565     -11.794    -328.640
  H      281.459      -9.714    -329.893
  H      279.524      -8.375    -330.236
  H      277.845     -10.681    -330.733
  H      285.045     -14.661    -327.558
  H      278.640     -10.625    -333.025
  H      285.571     -14.616    -329.215
  H      278.526      -8.944    -332.435
  P      277.278      -8.083    -328.959
  C      275.178      -9.517    -328.445
  O      276.008      -8.437    -328.046
  O      276.744      -8.267    -330.456
  O      277.859      -6.725    -328.747
  H      277.066      -7.536    -331.016
  H      274.379      -9.631    -327.743
  H      275.755     -10.417    -328.478
  H      274.774      -9.317    -329.415

 6  7  8  9  10  11  12  13  14  15  16  26  30  31  32  33  35 0
 6-311+G(2d,p)
 ****
 37  38 0
 6-311+G(2d,p)
 ****
 1  2  3  4  5  17  18  19  20  21  22  23  24  25 0
 3-21G
 ****
 27  28  29  34  36  39  40  41  42  43  44  45  46 0
 3-21G
 ****


