%nproc=1
%NoSave
%Mem=1900MB
#P OB98/GEN NMR

erre ene a

0 1
  C      -84.415    -899.711    -553.532
  O      -83.600    -900.887    -553.480
  P      -81.998    -900.824    -553.449
  C      -80.819    -898.789    -552.374
  O      -81.516    -900.015    -552.150
  C      -79.888    -898.449    -551.203
  O      -80.644    -898.186    -550.007
  C      -78.902    -899.553    -550.830
  O      -77.836    -899.627    -551.760
  C      -78.496    -899.120    -549.422
  O      -77.475    -898.100    -549.464
  C      -79.820    -898.535    -548.876
  N      -80.505    -899.457    -547.981
  C      -80.538    -899.101    -546.625
  O      -79.968    -898.084    -546.229
  N      -81.213    -899.913    -545.743
  C      -81.733    -901.026    -546.176
  N      -82.387    -901.794    -545.260
  C      -81.638    -901.493    -547.575
  C      -81.016    -900.658    -548.412
  O      -81.375    -900.349    -554.725
  O      -81.527    -902.331    -553.131
  H      -77.334    -897.812    -548.547
  H      -80.672    -902.495    -553.563
  H      -82.056    -902.436    -547.877
  H      -80.911    -900.917    -549.457
  H      -79.632    -897.596    -548.343
  H      -78.110    -899.949    -548.824
  H      -79.425    -900.513    -550.783
  H      -79.350    -897.523    -551.468
  H      -82.445    -901.451    -544.309
  H      -81.564    -897.987    -552.487
  H      -82.824    -902.678    -545.483
  H      -80.248    -898.875    -553.307
  P      -77.994    -900.505    -553.083
  C      -78.791    -900.145    -555.503
  O      -78.697    -899.598    -554.195
  O      -78.595    -901.861    -552.889
  O      -76.484    -900.634    -553.639
  H      -76.390    -901.493    -554.094
  H      -79.607    -899.662    -556.030
  H      -79.001    -901.221    -555.452
  H      -77.858    -899.976    -556.034
  H      -85.447    -899.993    -553.545
  H      -84.186    -899.157    -554.418
  H      -84.221    -899.105    -552.672

 3  4  5  6  7  8  9  10  11  12  13  23  27  28  29  30  32 0
 6-311+G(2d,p)
 ****
 34  35 0
 6-311+G(2d,p)
 ****
 1  2  14  15  16  17  18  19  20  21  22  24  25  26 0
 3-21G
 ****
 31  33  36  37  38  39  40  41  42  43  44  45  46 0
 3-21G
 ****


