%nproc=1
%NoSave
%Mem=1900MB
#P OB98/GEN NMR

erre ene a

0 1
  C     -188.759    -633.533     232.171
  O     -188.041    -633.739     230.968
  P     -188.787    -634.197     229.625
  C     -186.987    -635.814     228.760
  O     -188.271    -635.695     229.351
  C     -186.463    -637.241     228.927
  O     -186.232    -637.476     230.336
  C     -187.414    -638.356     228.489
  O     -187.364    -638.654     227.100
  C     -186.848    -639.533     229.272
  O     -185.671    -640.040     228.611
  C     -186.471    -638.886     230.603
  N     -188.252    -641.750     234.452
  C     -187.155    -641.866     233.664
  N     -186.760    -641.071     232.645
  C     -187.609    -640.041     232.502
  C     -188.756    -639.786     233.229
  C     -189.075    -640.696     234.246
  N     -190.178    -640.558     235.065
  N     -189.375    -638.635     232.771
  C     -188.601    -638.202     231.797
  N     -187.517    -639.014     231.601
  O     -188.649    -633.245     228.485
  O     -190.303    -634.415     230.070
  H     -185.354    -640.799     229.142
  H     -190.886    -634.437     229.286
  H     -186.511    -642.717     233.876
  H     -188.785    -637.317     231.207
  H     -185.548    -639.297     231.027
  H     -187.557    -640.368     229.346
  H     -188.436    -638.158     228.814
  H     -185.503    -637.320     228.409
  H     -186.302    -635.121     229.265
  H     -190.255    -641.186     235.842
  H     -190.701    -639.698     235.014
  H     -187.036    -635.536     227.701
  P     -188.339    -639.822     226.567
  C     -186.666    -640.106     224.574
  O     -187.440    -640.716     225.585
  O     -189.626    -639.343     225.999
  O     -188.513    -640.749     227.863
  H     -187.711    -641.217     228.147
  H     -186.011    -640.868     224.129
  H     -186.045    -639.316     224.984
  H     -187.314    -639.712     223.792
  H     -188.082    -633.233     232.943
  H     -189.245    -634.442     232.456
  H     -189.492    -632.768     232.022

 3  4  5  6  7  8  9  10  11  12  22  25  29  30  31  32 0
 6-311+G(2d,p)
 ****
 33  36  37 0
 6-311+G(2d,p)
 ****
 1  2  13  14  15  16  17  18  19  20  21  23  24  26 0
 3-21G
 ****
 27  28  34  35  38  39  40  41  42  43  44  45  46  47  48 0
 3-21G
 ****


