%nproc=1
%NoSave
%Mem=1900MB
#P OB98/GEN NMR

erre ene a

0 1
  C     -785.854     143.418    -790.955
  O     -785.980     142.885    -792.276
  P     -784.963     141.700    -792.706
  C     -784.204     142.144    -795.169
  O     -785.097     141.469    -794.293
  C     -784.878     142.443    -796.498
  O     -785.105     141.232    -797.280
  C     -786.254     143.103    -796.371
  O     -786.133     144.498    -796.151
  C     -786.836     142.816    -797.736
  O     -786.328     143.754    -798.695
  C     -786.315     141.414    -798.054
  N     -788.733     137.241    -799.808
  C     -787.872     138.127    -800.389
  N     -787.294     139.212    -799.859
  C     -787.633     139.351    -798.578
  C     -788.499     138.539    -797.845
  C     -789.053     137.451    -798.510
  N     -789.904     136.551    -797.883
  N     -788.628     139.022    -796.557
  C     -787.845     140.096    -796.513
  N     -787.245     140.341    -797.706
  O     -785.671     140.394    -792.073
  O     -783.580     141.866    -792.201
  H     -785.355     143.688    -798.694
  H     -784.986     139.770    -791.787
  H     -787.632     137.907    -801.456
  H     -787.694     140.714    -795.634
  H     -786.042     141.295    -799.108
  H     -787.920     142.904    -797.766
  H     -786.844     142.611    -795.589
  H     -784.196     143.104    -797.082
  H     -783.301     141.533    -795.318
  H     -790.251     135.764    -798.446
  H     -790.145     136.695    -796.919
  H     -783.869     143.067    -794.680
  P     -784.993     144.984    -795.147
  C     -786.430     147.073    -794.518
  O     -785.180     146.561    -794.980
  O     -783.640     144.841    -796.018
  O     -784.895     144.202    -793.858
  H     -782.883     144.631    -795.440
  H     -786.280     148.105    -794.180
  H     -786.808     146.466    -793.682
  H     -787.152     147.046    -795.335
  H     -786.583     144.187    -790.810
  H     -784.874     143.827    -790.828
  H     -786.011     142.638    -790.239

 3  4  5  6  7  8  9  10  11  12  22  25  29  30  31  32 0
 6-311+G(2d,p)
 ****
 33  36  37 0
 6-311+G(2d,p)
 ****
 1  2  13  14  15  16  17  18  19  20  21  23  24  26 0
 3-21G
 ****
 27  28  34  35  38  39  40  41  42  43  44  45  46  47  48 0
 3-21G
 ****


