%nproc=1
%NoSave
%Mem=1900MB
#P OB98/GEN NMR

erre ene a

0 1
  C      968.590    -104.605     296.526
  O      968.143    -103.266     296.455
  H      967.762    -105.268     296.267
  H      968.924    -104.835     297.540
  H      969.411    -104.775     295.818
  P      969.250    -102.113     296.566
  C      970.673    -101.841     294.408
  O      969.463    -101.539     295.081
  C      971.159    -100.616     293.632
  O      970.307    -100.441     292.462
  C      971.114     -99.306     294.436
  O      972.240     -98.507     294.055
  C      969.839     -98.646     293.943
  O      969.819     -97.236     294.119
  C      969.844     -99.074     292.470
  N      968.525     -98.965     291.855
  C      968.296     -97.871     291.020
  O      969.147     -97.039     290.708
  N      967.016     -97.746     290.540
  C      965.968     -98.575     290.825
  O      964.839     -98.399     290.381
  C      966.268     -99.707     291.716
  C      967.509     -99.842     292.177
  O      970.597    -102.930     296.846
  O      968.987    -101.069     297.607
  H      970.731    -103.050     297.803
  H      970.682     -96.891     293.811
  H      966.831     -96.962     289.942
  H      965.455    -100.383     291.971
  H      967.763    -100.658     292.859
  H      970.570     -98.477     291.904
  H      968.972     -99.068     294.469
  H      971.115     -99.449     295.518
  H      972.177    -100.810     293.267
  H      970.506    -102.663     293.704
  H      971.426    -102.154     295.139
  P      973.610     -98.716     294.871
  C      975.286    -100.725     294.762
  O      974.409     -99.847     294.065
  O      973.074     -99.457     296.182
  O      974.342     -97.439     295.113
  H      972.328    -100.066     296.003
  H      975.730    -101.409     294.070
  H      974.734    -101.270     295.498
  H      976.054    -100.155     295.242

 6  7  8  9  10  11  12  13  14  15  16  27  31  32  33  34  35 0
 6-311+G(2d,p)
 ****
 36  37 0
 6-311+G(2d,p)
 ****
 1  2  3  4  5  17  18  19  20  21  22  23  24  25 0
 3-21G
 ****
 26  28  29  30  38  39  40  41  42  43  44  45 0
 3-21G
 ****


