%nproc=1
%NoSave
%Mem=1900MB
#P OB98/GEN NMR

erre ene a

0 1
  C      -81.545     -31.036      75.874
  O      -80.306     -30.429      76.234
  P      -79.244     -31.044      77.255
  C      -79.256     -28.982      78.890
  O      -79.465     -30.372      78.692
  C      -78.180     -28.730      79.960
  O      -78.736     -29.061      81.268
  C      -76.939     -29.612      79.761
  O      -75.707     -28.921      79.976
  C      -77.225     -30.811      80.653
  O      -76.065     -31.555      80.992
  C      -77.979     -30.166      81.817
  N      -78.580     -33.318      85.792
  C      -77.444     -32.664      85.359
  N      -76.310     -32.885      86.063
  N      -77.414     -31.875      84.317
  C      -78.592     -31.802      83.659
  C      -79.787     -32.416      83.982
  C      -79.822     -33.248      85.164
  O      -80.803     -33.837      85.605
  N      -80.769     -32.099      83.078
  C      -80.176     -31.312      82.204
  N      -78.847     -31.094      82.519
  O      -77.835     -31.125      76.760
  O      -79.764     -32.557      77.481
  H      -75.539     -31.019      81.613
  H      -78.967     -33.101      77.636
  H      -78.551     -33.896      86.618
  H      -80.653     -30.861      81.340
  H      -77.303     -29.763      82.573
  H      -77.889     -31.488      80.094
  H      -76.234     -33.569      86.796
  H      -76.862     -29.947      78.721
  H      -75.441     -32.582      85.613
  H      -77.924     -27.663      79.959
  H      -80.218     -28.574      79.227
  H      -79.001     -28.489      77.949
  P      -74.843     -28.077      78.935
  C      -72.996     -29.784      78.432
  O      -74.124     -29.090      77.924
  O      -73.620     -27.490      79.787
  O      -75.586     -26.959      78.266
  H      -73.651     -26.510      79.779
  H      -72.453     -30.224      77.591
  H      -73.331     -30.588      79.095
  H      -72.330     -29.107      78.972
  H      -82.059     -30.410      75.174
  H      -82.148     -31.162      76.749
  H      -81.358     -31.991      75.429

 3  4  5  6  7  8  9  10  11  12  23  26  30  31 0
 6-311+G(2d,p)
 ****
 33  35  36  37  38 0
 6-311+G(2d,p)
 ****
 1  2  13  14  15  16  17  18  19  20  21  22  24  25 0
 3-21G
 ****
 27  28  29  32  34  39  40  41  42  43  44  45  46  47  48  49 0
 3-21G
 ****


