%nproc=1
%NoSave
%Mem=1900MB
#P OB98/GEN NMR

erre ene a

0 1
  C      117.380    -171.847     126.122
  O      117.914    -170.548     126.293
  P      117.658    -169.731     127.652
  C      115.558    -168.907     128.902
  O      116.073    -169.470     127.693
  C      114.126    -168.413     128.701
  O      113.255    -169.512     128.338
  C      113.506    -167.791     129.950
  O      113.995    -166.479     130.146
  C      112.019    -167.866     129.610
  O      111.622    -166.772     128.761
  C      111.933    -169.210     128.836
  N      111.399    -170.291     129.657
  C      110.203    -170.856     129.221
  O      109.634    -170.418     128.213
  N      109.642    -171.869     129.960
  C      110.233    -172.260     131.055
  N      109.612    -173.265     131.746
  C      111.481    -171.664     131.561
  C      112.003    -170.691     130.825
  O      118.513    -168.523     127.844
  O      117.871    -170.840     128.789
  H      111.779    -165.950     129.284
  H      118.823    -171.058     128.913
  H      111.916    -172.026     132.487
  H      112.920    -170.206     131.126
  H      111.292    -169.095     127.948
  H      111.388    -167.833     130.500
  H      113.707    -168.425     130.819
  H      114.122    -167.693     127.877
  H      108.744    -173.630     131.382
  H      116.195    -168.065     129.194
  H      109.959    -173.621     132.635
  H      115.604    -169.662     129.705
  P      114.436    -166.003     131.618
  C      113.209    -165.301     133.754
  O      113.150    -165.398     132.337
  O      115.674    -165.161     131.669
  O      114.675    -167.386     132.399
  H      115.494    -167.326     132.911
  H      112.445    -164.588     134.088
  H      114.197    -164.951     134.082
  H      113.009    -166.279     134.201
  H      117.657    -172.223     125.159
  H      116.313    -171.807     126.195
  H      117.765    -172.494     126.882

 3  4  5  6  7  8  9  10  11  12  13  23  27  28  29  30  32 0
 6-311+G(2d,p)
 ****
 34  35 0
 6-311+G(2d,p)
 ****
 1  2  14  15  16  17  18  19  20  21  22  24  25  26 0
 3-21G
 ****
 31  33  36  37  38  39  40  41  42  43  44  45  46 0
 3-21G
 ****


