%nproc=1
%NoSave
%Mem=1900MB
#P OB98/GEN NMR

erre ene a

0 1
  C      -42.211    -632.525    -635.878
  O      -42.172    -632.275    -637.269
  H      -43.009    -631.925    -635.438
  H      -41.263    -632.235    -635.417
  H      -42.415    -633.581    -635.680
  P      -41.171    -633.128    -638.184
  C      -42.521    -635.230    -638.814
  O      -41.537    -634.672    -637.952
  C      -42.118    -636.645    -639.215
  O      -40.926    -636.610    -640.036
  C      -41.784    -637.554    -638.037
  O      -42.961    -637.981    -637.383
  C      -40.998    -638.650    -638.743
  O      -41.880    -639.570    -639.403
  C      -40.197    -637.835    -639.790
  N      -38.826    -637.550    -639.352
  C      -37.812    -638.142    -640.095
  O      -38.020    -638.870    -641.058
  N      -36.540    -637.903    -639.654
  C      -36.195    -637.223    -638.520
  O      -35.065    -637.221    -638.047
  C      -37.303    -636.558    -637.822
  C      -38.549    -636.760    -638.250
  O      -39.723    -632.794    -638.045
  O      -41.697    -632.856    -639.672
  H      -41.124    -632.192    -640.099
  H      -42.409    -639.046    -640.037
  H      -35.795    -638.368    -640.157
  H      -37.067    -635.955    -636.955
  H      -39.386    -636.303    -637.729
  H      -40.145    -638.376    -640.738
  H      -40.384    -639.229    -638.053
  H      -41.113    -637.033    -637.341
  H      -42.931    -637.074    -639.821
  H      -42.598    -634.601    -639.708
  H      -43.489    -635.238    -638.300
  P      -42.896    -638.725    -635.967
  C      -42.665    -636.916    -634.162
  O      -41.978    -637.849    -634.985
  O      -42.533    -640.170    -636.030
  O      -44.361    -638.527    -635.356
  H      -44.724    -639.404    -635.099
  H      -41.960    -636.391    -633.553
  H      -43.359    -637.436    -633.536
  H      -43.193    -636.218    -634.778

 6  7  8  9  10  11  12  13  14  15  16  27  31  32  33  34  35 0
 6-311+G(2d,p)
 ****
 36  37 0
 6-311+G(2d,p)
 ****
 1  2  3  4  5  17  18  19  20  21  22  23  24  25 0
 3-21G
 ****
 26  28  29  30  38  39  40  41  42  43  44  45 0
 3-21G
 ****


