%nproc=1
%NoSave
%Mem=1900MB
#P OB98/GEN NMR

erre ene a

0 1
  C      399.392     472.576      17.086
  O      400.053     471.355      17.410
  P      400.838     470.443      16.357
  C      403.287     470.603      15.445
  O      402.406     470.691      16.549
  C      404.774     470.680      15.843
  O      405.027     471.929      16.539
  C      405.118     469.561      16.831
  O      405.434     468.266      16.355
  C      406.180     470.163      17.739
  O      407.508     469.865      17.304
  C      405.913     471.666      17.642
  N      406.706     474.503      21.832
  C      407.599     474.129      20.846
  N      408.884     474.521      21.014
  N      407.269     473.428      19.797
  C      405.978     473.029      19.793
  C      405.002     473.315      20.720
  C      405.367     474.145      21.850
  O      404.606     474.515      22.744
  N      403.810     472.723      20.394
  C      404.066     472.059      19.291
  N      405.372     472.218      18.878
  O      400.316     470.475      14.961
  O      400.615     468.948      16.924
  H      407.649     468.907      17.402
  H      400.583     468.356      16.146
  H      407.008     475.068      22.603
  H      403.352     471.452      18.742
  H      406.837     472.222      17.439
  H      406.091     469.759      18.756
  H      409.222     474.958      21.856
  H      404.237     469.416      17.470
  H      409.576     474.069      20.414
  H      405.415     470.690      14.964
  H      403.036     471.429      14.769
  H      403.104     469.683      14.890
  P      404.559     466.940      16.563
  C      402.049     466.649      16.987
  O      403.042     467.290      16.200
  O      404.507     466.758      18.154
  O      405.103     465.714      15.906
  H      404.224     465.856      18.386
  H      401.089     466.709      16.466
  H      401.962     467.150      17.954
  H      402.299     465.593      17.148
  H      398.947     472.986      17.969
  H      398.631     472.387      16.358
  H      400.102     473.271      16.688

 3  4  5  6  7  8  9  10  11  12  23  26  30  31 0
 6-311+G(2d,p)
 ****
 33  35  36  37  38 0
 6-311+G(2d,p)
 ****
 1  2  13  14  15  16  17  18  19  20  21  22  24  25 0
 3-21G
 ****
 27  28  29  32  34  39  40  41  42  43  44  45  46  47  48  49 0
 3-21G
 ****


