%nproc=1
%NoSave
%Mem=1900MB
#P OB98/GEN NMR

erre ene a

0 1
  C      180.254     433.095    -165.315
  O      178.854     433.278    -165.432
  H      180.442     432.288    -164.602
  H      180.717     434.015    -164.940
  H      180.686     432.825    -166.284
  P      178.349     434.301    -166.556
  C      178.655     436.385    -164.986
  O      178.980     435.743    -166.210
  C      179.529     437.622    -164.794
  O      180.914     437.265    -164.609
  C      179.554     438.548    -165.999
  O      178.346     439.243    -166.181
  C      180.738     439.442    -165.640
  O      180.351     440.442    -164.689
  C      181.707     438.418    -164.997
  N      182.796     438.047    -165.893
  C      183.809     439.007    -166.056
  O      183.740     440.081    -165.454
  N      184.842     438.737    -166.916
  C      184.881     437.597    -167.538
  N      185.925     437.387    -168.385
  C      183.854     436.546    -167.378
  C      182.851     436.839    -166.551
  O      176.804     434.494    -166.188
  O      178.601     433.876    -167.969
  H      179.824     441.100    -165.181
  H      176.656     434.760    -165.263
  H      183.935     435.606    -167.912
  H      182.059     436.121    -166.377
  H      182.145     438.827    -164.077
  H      181.135     439.967    -166.513
  H      179.828     437.984    -166.905
  H      179.190     438.146    -163.894
  H      186.596     438.142    -168.487
  H      178.774     435.696    -164.141
  H      186.040     436.559    -168.948
  H      177.600     436.673    -165.027
  P      177.625     439.275    -167.617
  C      178.835     441.493    -168.121
  O      178.566     440.178    -168.568
  O      176.197     439.677    -167.606
  O      177.887     437.798    -168.190
  H      178.825     437.550    -168.283
  H      179.464     441.989    -168.830
  H      179.329     441.453    -167.173
  H      177.916     442.031    -168.022

 6  7  8  9  10  11  12  13  14  15  16  26  30  31  32  33  35 0
 6-311+G(2d,p)
 ****
 37  38 0
 6-311+G(2d,p)
 ****
 1  2  3  4  5  17  18  19  20  21  22  23  24  25 0
 3-21G
 ****
 27  28  29  34  36  39  40  41  42  43  44  45  46 0
 3-21G
 ****


