%nproc=1
%NoSave
%Mem=1900MB
#P OB98/GEN NMR

erre ene a

0 1
  C      -38.212       6.639     -19.028
  O      -39.416       5.945     -19.289
  H      -37.566       6.561     -19.906
  H      -37.697       6.197     -18.170
  H      -38.422       7.695     -18.837
  P      -40.496       5.907     -18.103
  C      -43.056       5.521     -18.133
  O      -41.913       5.967     -18.852
  C      -44.191       5.176     -19.093
  O      -44.517       6.315     -19.909
  C      -43.876       4.037     -20.055
  O      -44.102       2.783     -19.432
  C      -44.891       4.300     -21.157
  O      -46.175       3.775     -20.767
  C      -44.948       5.836     -21.209
  N      -44.914       8.077     -25.827
  C      -45.880       7.409     -25.163
  N      -45.805       6.792     -23.964
  C      -44.576       6.923     -23.438
  C      -43.489       7.575     -24.001
  C      -43.693       8.178     -25.254
  N      -42.704       8.858     -25.929
  N      -42.388       7.499     -23.175
  C      -42.821       6.865     -22.104
  N      -44.127       6.462     -22.229
  O      -40.287       6.896     -17.007
  O      -40.406       4.371     -17.658
  H      -46.770       3.886     -21.533
  H      -40.328       3.793     -18.437
  H      -46.844       7.359     -25.662
  H      -42.238       6.688     -21.207
  H      -45.970       6.199     -21.368
  H      -44.623       3.818     -22.099
  H      -42.865       4.122     -20.470
  H      -45.080       4.942     -18.492
  H      -43.387       6.295     -17.431
  H      -42.879       9.088     -26.894
  H      -41.765       8.818     -25.558
  H      -42.761       4.637     -17.558
  P      -43.162       1.522     -19.744
  C      -42.424      -0.552     -18.415
  O      -43.115       0.690     -18.373
  O      -41.841       1.867     -20.339
  O      -44.049       0.594     -20.696
  H      -43.481      -0.058     -21.150
  H      -42.459      -1.013     -17.450
  H      -41.405      -0.384     -18.693
  H      -42.888      -1.194     -19.134

 6  7  8  9  10  11  12  13  14  15  25  28  32  33  34  35 0
 6-311+G(2d,p)
 ****
 36  39  40 0
 6-311+G(2d,p)
 ****
 1  2  3  4  5  16  17  18  19  20  21  22  23  24 0
 3-21G
 ****
 26  27  29  30  31  37  38  41  42  43  44  45  46  47 0
 3-21G
 ****
 48 0
 3-21G
 ****


