%nproc=1
%NoSave
%Mem=1900MB
#P OB98/GEN NMR

erre ene a

0 1
  C     -285.828     -74.992     425.932
  O     -286.320     -74.120     426.930
  H     -284.821     -74.669     425.651
  H     -286.466     -74.955     425.042
  H     -285.774     -76.016     426.310
  P     -287.794     -74.383     427.507
  C     -288.365     -71.939     426.896
  O     -288.742     -73.305     426.793
  C     -288.517     -71.248     425.545
  O     -287.750     -71.940     424.537
  C     -289.957     -71.196     425.030
  O     -290.666     -70.133     425.648
  C     -289.710     -70.976     423.546
  O     -289.355     -69.600     423.313
  C     -288.501     -71.892     423.295
  N     -288.049     -75.455     419.715
  C     -287.617     -74.145     419.723
  N     -287.013     -73.713     418.592
  N     -287.778     -73.329     420.732
  C     -288.457     -73.886     421.762
  C     -288.953     -75.168     421.866
  C     -288.722     -76.078     420.770
  O     -289.072     -77.254     420.729
  N     -289.650     -75.343     423.035
  C     -289.538     -74.183     423.653
  N     -288.838     -73.256     422.916
  O     -287.925     -74.410     429.001
  O     -288.233     -75.767     426.838
  H     -288.644     -69.383     423.945
  H     -288.010     -76.524     427.414
  H     -287.913     -76.033     418.899
  H     -289.948     -73.960     424.633
  H     -287.837     -71.499     422.521
  H     -290.586     -71.200     422.932
  H     -287.120     -74.195     417.711
  H     -290.468     -72.156     425.163
  H     -286.732     -72.736     418.560
  H     -288.099     -70.236     425.634
  H     -287.322     -71.908     427.229
  H     -288.988     -71.427     427.644
  P     -291.948     -70.415     426.572
  C     -293.439     -68.852     425.157
  O     -293.214     -70.176     425.617
  O     -291.979     -69.651     427.853
  O     -291.955     -72.003     426.772
  H     -291.425     -72.311     427.546
  H     -294.309     -68.834     424.534
  H     -292.591     -68.521     424.595
  H     -293.587     -68.204     425.995

 6  7  8  9  10  11  12  13  14  15  26  29  33  34 0
 6-311+G(2d,p)
 ****
 36  38  39  40  41 0
 6-311+G(2d,p)
 ****
 1  2  3  4  5  16  17  18  19  20  21  22  23  24  25 0
 3-21G
 ****
 27  28  30  31  32  35  37  42  43  44  45  46  47 0
 3-21G
 ****
 48  49 0
 3-21G
 ****


