%nproc=1
%NoSave
%Mem=1900MB
#P OB98/GEN NMR

erre ene a

0 1
  C      104.149     164.472     -97.512
  O      104.724     165.137     -96.396
  P      105.718     164.306     -95.448
  C      104.288     164.565     -93.288
  O      105.510     164.845     -93.947
  C      104.242     165.263     -91.924
  O      105.351     164.785     -91.097
  C      104.351     166.790     -92.001
  O      103.560     167.340     -90.937
  C      105.823     167.027     -91.708
  O      106.106     168.354     -91.295
  C      106.067     165.947     -90.642
  N      107.488     165.667     -90.434
  C      107.964     165.719     -89.131
  O      107.264     165.989     -88.149
  N      109.311     165.507     -88.983
  C      110.217     165.348     -89.985
  O      111.427     165.283     -89.794
  C      109.658     165.295     -91.353
  C      108.342     165.457     -91.507
  O      107.162     164.858     -95.855
  O      105.623     162.822     -95.591
  H      107.068     168.477     -91.341
  H      107.610     164.236     -96.465
  H      109.685     165.535     -88.039
  H      110.345     165.151     -92.171
  H      107.900     165.452     -92.496
  H      105.610     166.256     -89.689
  H      106.411     166.832     -92.617
  H      104.036     167.205     -92.965
  H      103.311     164.973     -91.413
  H      104.199     163.485     -93.140
  H      103.443     164.882     -93.916
  P      102.348     168.325     -91.328
  C      103.467     170.093     -89.743
  O      102.290     169.451     -90.187
  O      101.089     167.386     -91.013
  O      102.400     168.810     -92.741
  H      101.181     166.892     -90.178
  H      104.189     170.209     -90.566
  H      103.919     169.499     -88.948
  H      103.217     171.076     -89.361
  H      103.515     165.150     -98.043
  H      103.573     163.637     -97.172
  H      104.927     164.128     -98.161

 3  4  5  6  7  8  9  10  11  12  13  23  28  29  30  31  32 0
 6-311+G(2d,p)
 ****
 33  34 0
 6-311+G(2d,p)
 ****
 1  2  14  15  16  17  18  19  20  21  22  24  25  26 0
 3-21G
 ****
 27  35  36  37  38  39  40  41  42  43  44  45 0
 3-21G
 ****


