%nproc=1
%NoSave
%Mem=1900MB
#P OB98/GEN NMR

erre ene a

0 1
  C      374.027    -203.937     133.726
  O      375.152    -204.760     133.982
  H      373.119    -204.512     133.926
  H      374.008    -203.615     132.681
  H      374.039    -203.061     134.381
  P      376.605    -204.190     133.612
  C      377.580    -202.847     131.626
  O      376.412    -203.379     132.245
  C      377.377    -202.750     130.118
  O      376.434    -201.707     129.803
  C      378.650    -202.400     129.364
  O      379.508    -203.520     129.268
  C      378.078    -201.903     128.050
  O      377.712    -202.991     127.193
  C      376.821    -201.136     128.535
  N      377.047    -199.701     128.656
  C      377.259    -199.011     127.457
  O      377.245    -199.609     126.379
  N      377.508    -197.663     127.514
  C      377.519    -197.052     128.658
  N      377.775    -195.714     128.647
  C      377.290    -197.741     129.943
  C      377.066    -199.048     129.865
  O      377.732    -205.177     133.594
  O      376.840    -203.029     134.690
  H      378.547    -203.456     126.987
  H      377.268    -203.389     135.490
  H      377.306    -197.191     130.871
  H      376.881    -199.633     130.764
  H      375.983    -201.295     127.844
  H      378.790    -201.279     127.512
  H      379.160    -201.565     129.852
  H      376.961    -203.702     129.765
  H      377.939    -195.286     127.741
  H      378.406    -203.530     131.857
  H      377.721    -195.125     129.459
  H      377.818    -201.861     132.039
  P      381.027    -203.346     128.783
  C      382.170    -202.096     126.839
  O      380.938    -202.576     127.376
  O      381.845    -204.594     128.780
  O      381.597    -202.220     129.774
  H      381.757    -202.582     130.679
  H      381.985    -201.604     125.907
  H      382.836    -202.919     126.682
  H      382.613    -201.405     127.525

 6  7  8  9  10  11  12  13  14  15  16  26  30  31  32  33  35 0
 6-311+G(2d,p)
 ****
 37  38 0
 6-311+G(2d,p)
 ****
 1  2  3  4  5  17  18  19  20  21  22  23  24  25 0
 3-21G
 ****
 27  28  29  34  36  39  40  41  42  43  44  45  46 0
 3-21G
 ****


