%nproc=1
%NoSave
%Mem=1900MB
#P OB98/GEN NMR

erre ene a

0 1
  C     -123.825      32.924      55.860
  O     -124.039      33.952      56.805
  P     -125.486      34.360      57.342
  C     -125.730      36.175      55.497
  O     -126.299      35.035      56.130
  C     -126.496      36.609      54.238
  O     -126.354      35.603      53.217
  C     -127.995      36.708      54.543
  O     -128.527      37.877      55.134
  C     -128.687      36.263      53.261
  O     -129.116      37.366      52.458
  C     -127.608      35.458      52.534
  N     -130.548      31.956      50.345
  C     -130.356      33.276      49.988
  N     -131.199      33.763      49.051
  N     -129.442      34.046      50.523
  C     -128.744      33.443      51.514
  C     -128.833      32.140      51.946
  C     -129.820      31.290      51.319
  O     -130.078      30.139      51.665
  N     -128.018      31.899      53.022
  C     -127.463      33.068      53.269
  N     -127.903      34.045      52.405
  O     -125.546      35.005      58.690
  O     -126.199      32.917      57.466
  H     -128.343      37.696      51.965
  H     -126.804      32.953      58.232
  H     -131.322      31.435      49.953
  H     -126.767      33.269      54.076
  H     -127.456      35.845      51.518
  H     -129.588      35.681      53.489
  H     -132.002      33.246      48.726
  H     -128.220      35.918      55.272
  H     -131.199      34.765      48.889
  H     -126.073      37.525      53.817
  H     -124.692      35.929      55.251
  H     -125.702      37.008      56.204
  P     -129.791      37.956      56.111
  C     -131.346      38.799      54.260
  O     -131.121      37.793      55.230
  O     -129.849      39.494      56.558
  O     -129.719      37.067      57.309
  H     -130.343      39.574      57.396
  H     -132.390      38.762      53.945
  H     -130.706      38.618      53.389
  H     -131.130      39.792      54.665
  H     -122.778      32.837      55.658
  H     -124.345      33.158      54.954
  H     -124.190      31.998      56.252

 3  4  5  6  7  8  9  10  11  12  23  26  30  31 0
 6-311+G(2d,p)
 ****
 33  35  36  37  38 0
 6-311+G(2d,p)
 ****
 1  2  13  14  15  16  17  18  19  20  21  22  24  25 0
 3-21G
 ****
 27  28  29  32  34  39  40  41  42  43  44  45  46  47  48  49 0
 3-21G
 ****


