%nproc=1
%NoSave
%Mem=1900MB
#P OB98/GEN NMR

erre ene a

0 1
  C     -104.114    -803.638    1134.223
  O     -104.904    -804.694    1133.649
  P     -106.192    -804.299    1132.764
  C     -105.237    -804.459    1130.334
  O     -105.679    -803.616    1131.395
  C     -105.726    -803.913    1128.983
  O     -105.152    -802.628    1128.698
  C     -105.346    -804.797    1127.817
  O     -106.254    -805.882    1127.665
  C     -105.500    -803.817    1126.665
  O     -106.887    -803.692    1126.293
  C     -104.979    -802.521    1127.250
  N     -101.510    -801.786    1123.564
  C     -102.831    -802.077    1123.510
  N     -103.682    -802.269    1124.547
  C     -103.049    -802.130    1125.713
  C     -101.700    -801.842    1125.925
  C     -100.913    -801.662    1124.765
  N      -99.564    -801.378    1124.815
  N     -101.418    -801.791    1127.271
  C     -102.564    -802.024    1127.861
  N     -103.575    -802.254    1126.967
  O     -106.818    -803.083    1133.575
  O     -107.161    -805.423    1132.596
  H     -106.931    -803.075    1125.539
  H     -107.787    -803.095    1133.496
  H     -103.271    -802.152    1122.508
  H     -102.711    -802.041    1128.944
  H     -105.549    -801.649    1126.919
  H     -104.960    -804.157    1125.753
  H     -104.303    -805.144    1127.894
  H     -106.811    -803.811    1129.031
  H     -105.618    -805.469    1130.496
  H      -99.073    -801.232    1123.955
  H      -99.115    -801.257    1125.721
  H     -104.150    -804.522    1130.378
  P     -105.781    -807.124    1126.760
  C     -104.359    -808.159    1128.699
  O     -104.360    -807.588    1127.402
  O     -105.359    -806.432    1125.379
  O     -106.806    -808.202    1126.585
  H     -105.509    -807.054    1124.637
  H     -103.411    -808.684    1128.828
  H     -105.174    -808.891    1128.817
  H     -104.441    -807.379    1129.454
  H     -103.302    -804.061    1134.777
  H     -104.724    -803.051    1134.877
  H     -103.728    -803.017    1133.442

 3  4  5  6  7  8  9  10  11  12  22  25  29  30  31  32 0
 6-311+G(2d,p)
 ****
 33  36  37 0
 6-311+G(2d,p)
 ****
 1  2  13  14  15  16  17  18  19  20  21  23  24  26 0
 3-21G
 ****
 27  28  34  35  38  39  40  41  42  43  44  45  46  47  48 0
 3-21G
 ****


