%nproc=1
%NoSave
%Mem=1900MB
#P OB98/GEN NMR

erre ene a

0 1
  C       90.371     316.954    -443.193
  O       91.451     317.561    -443.882
  P       92.940     317.162    -443.433
  C       93.070     314.762    -444.443
  O       92.953     315.563    -443.272
  C       94.545     314.535    -444.774
  O       95.189     315.777    -445.143
  C       95.372     313.982    -443.617
  O       95.218     312.585    -443.470
  C       96.774     314.328    -444.078
  O       97.227     313.348    -445.036
  C       96.577     315.685    -444.754
  N       99.676     319.626    -444.053
  C       99.509     318.823    -445.168
  N      100.323     319.062    -446.218
  N       98.620     317.862    -445.245
  C       97.879     317.732    -444.100
  C       97.947     318.478    -442.947
  C       98.945     319.512    -442.882
  O       99.187     320.234    -441.910
  N       97.032     318.054    -442.034
  C       96.398     317.056    -442.622
  N       96.905     316.791    -443.874
  O       93.023     317.691    -441.926
  O       94.031     317.737    -444.290
  H       96.621     313.388    -445.795
  H       93.952     317.743    -441.636
  H      100.383     320.336    -444.040
  H       95.586     316.495    -442.188
  H       97.179     315.784    -445.660
  H       97.502     314.325    -443.258
  H      101.072     319.740    -446.199
  H       95.148     314.519    -442.691
  H      100.260     318.440    -447.015
  H       94.592     313.865    -445.642
  H       92.582     315.274    -445.278
  H       92.564     313.811    -444.274
  P       95.679     311.950    -442.071
  C       93.330     312.276    -441.002
  O       94.712     312.599    -440.967
  O       97.088     312.663    -441.795
  O       95.788     310.461    -442.068
  H       97.652     312.095    -441.237
  H       92.876     312.577    -440.051
  H       93.177     311.196    -441.139
  H       92.843     312.827    -441.816
  H       89.446     317.311    -443.595
  H       90.427     317.201    -442.153
  H       90.425     315.892    -443.310

 3  4  5  6  7  8  9  10  11  12  23  26  30  31 0
 6-311+G(2d,p)
 ****
 33  35  36  37  38 0
 6-311+G(2d,p)
 ****
 1  2  13  14  15  16  17  18  19  20  21  22  24  25 0
 3-21G
 ****
 27  28  29  32  34  39  40  41  42  43  44  45  46  47  48  49 0
 3-21G
 ****


