%nproc=1
%NoSave
%Mem=1900MB
#P OB98/GEN NMR

erre ene a

0 1
  C      -25.026    -169.572     118.995
  O      -24.983    -168.544     118.018
  P      -23.569    -168.231     117.323
  C      -21.318    -167.199     118.123
  O      -22.669    -167.510     118.437
  C      -20.550    -166.835     119.389
  O      -20.388    -167.990     120.240
  C      -19.137    -166.321     119.140
  O      -19.119    -164.951     118.773
  C      -18.509    -166.515     120.509
  O      -18.891    -165.438     121.384
  C      -19.149    -167.830     120.971
  N      -15.448    -170.698     122.897
  C      -16.211    -169.718     123.498
  N      -15.901    -169.420     124.783
  N      -17.188    -169.085     122.905
  C      -17.379    -169.485     121.623
  C      -16.690    -170.447     120.918
  C      -15.599    -171.124     121.585
  O      -14.854    -171.965     121.085
  N      -17.177    -170.575     119.641
  C      -18.159    -169.698     119.573
  N      -18.292    -168.981     120.734
  O      -23.911    -167.046     116.303
  O      -22.939    -169.398     116.641
  H      -19.861    -165.349     121.308
  H      -23.200    -166.959     115.640
  H      -14.698    -171.149     123.396
  H      -18.782    -169.537     118.704
  H      -19.397    -167.812     122.037
  H      -17.416    -166.529     120.477
  H      -15.119    -169.825     125.276
  H      -18.613    -166.947     118.405
  H      -16.404    -168.659     125.228
  H      -21.139    -166.089     119.940
  H      -21.296    -166.360     117.424
  H      -20.856    -168.062     117.636
  P      -17.703    -164.346     118.315
  C      -15.557    -163.952     119.728
  O      -16.973    -163.900     119.666
  O      -18.110    -162.963     117.620
  O      -16.921    -165.230     117.399
  H      -17.442    -162.705     116.957
  H      -15.219    -163.373     120.593
  H      -15.108    -163.524     118.826
  H      -15.230    -164.986     119.845
  H      -26.024    -169.668     119.368
  H      -24.366    -169.326     119.801
  H      -24.720    -170.497     118.553

 3  4  5  6  7  8  9  10  11  12  23  26  30  31 0
 6-311+G(2d,p)
 ****
 33  35  36  37  38 0
 6-311+G(2d,p)
 ****
 1  2  13  14  15  16  17  18  19  20  21  22  24  25 0
 3-21G
 ****
 27  28  29  32  34  39  40  41  42  43  44  45  46  47  48  49 0
 3-21G
 ****


