%nproc=1
%NoSave
%Mem=1900MB
#P OB98/GEN NMR

erre ene a

0 1
  C     -212.753     -64.973    -139.783
  O     -212.655     -63.852    -140.643
  P     -212.765     -62.388    -140.006
  C     -210.324     -61.531    -140.283
  O     -211.328     -62.010    -139.399
  C     -210.105     -60.028    -140.082
  O     -209.647     -59.788    -138.716
  C     -209.063     -59.416    -141.026
  O     -209.478     -58.070    -141.316
  C     -207.812     -59.386    -140.163
  O     -206.831     -58.474    -140.627
  C     -208.430     -59.018    -138.810
  N     -207.537     -59.284    -137.684
  C     -206.850     -58.201    -137.140
  O     -206.955     -57.046    -137.553
  N     -205.976     -58.491    -136.129
  C     -205.658     -59.741    -135.677
  O     -204.777     -59.946    -134.849
  C     -206.407     -60.847    -136.288
  C     -207.301     -60.576    -137.244
  O     -213.679     -62.619    -138.711
  O     -213.341     -61.355    -140.920
  H     -207.242     -57.591    -140.665
  H     -214.596     -62.351    -138.890
  H     -205.479     -57.717    -135.717
  H     -206.197     -61.851    -135.937
  H     -207.859     -61.376    -137.725
  H     -208.721     -57.959    -138.798
  H     -207.362     -60.385    -140.139
  H     -208.925     -59.980    -141.954
  H     -211.070     -59.517    -140.195
  H     -210.636     -61.712    -141.313
  H     -209.392     -62.081    -140.113
  P     -209.099     -57.463    -142.754
  C     -211.423     -58.227    -143.669
  O     -210.022     -58.207    -143.831
  O     -207.647     -58.106    -142.979
  O     -209.098     -55.965    -142.793
  H     -207.609     -59.044    -142.722
  H     -211.794     -57.302    -143.215
  H     -211.704     -59.075    -143.043
  H     -211.893     -58.346    -144.654
  H     -212.661     -65.872    -140.356
  H     -213.702     -64.961    -139.288
  H     -211.970     -64.933    -139.054

 3  4  5  6  7  8  9  10  11  12  13  23  28  29  30  31  32 0
 6-311+G(2d,p)
 ****
 33  34 0
 6-311+G(2d,p)
 ****
 1  2  14  15  16  17  18  19  20  21  22  24  25  26 0
 3-21G
 ****
 27  35  36  37  38  39  40  41  42  43  44  45 0
 3-21G
 ****


