%nproc=1
%NoSave
%Mem=1900MB
#P OB98/GEN NMR

erre ene a

0 1
  C     -387.680     168.447      88.937
  O     -388.844     168.907      89.601
  H     -387.335     169.229      88.255
  H     -387.907     167.546      88.359
  H     -386.893     168.237      89.664
  P     -389.497     167.906      90.671
  C     -388.230     169.039      92.622
  O     -388.428     167.851      91.865
  C     -387.971     168.700      94.088
  O     -387.444     169.842      94.787
  C     -389.212     168.277      94.863
  O     -389.521     166.916      94.619
  C     -388.747     168.501      96.294
  O     -387.925     167.394      96.715
  C     -387.888     169.772      96.169
  N     -389.703     172.707      99.972
  C     -389.230     171.445      99.963
  N     -388.803     170.712      98.911
  C     -388.903     171.415      97.771
  C     -389.370     172.713      97.624
  C     -389.773     173.373      98.797
  N     -390.250     174.668      98.801
  N     -389.326     173.103      96.300
  C     -388.798     172.077      95.668
  N     -388.555     171.016      96.505
  O     -389.958     166.595      90.135
  O     -390.651     168.830      91.287
  H     -387.840     167.446      97.686
  H     -390.340     169.748      91.382
  H     -389.178     170.950     100.929
  H     -388.549     172.058      94.613
  H     -386.991     169.719      96.801
  H     -389.581     168.567      96.998
  H     -390.061     168.939      94.655
  H     -387.204     167.915      94.121
  H     -389.104     169.695      92.538
  H     -390.675     175.003      99.654
  H     -390.414     175.117      97.915
  H     -387.364     169.559      92.198
  P     -390.828     166.244      95.263
  C     -392.536     166.729      93.400
  O     -392.087     167.071      94.707
  O     -390.793     166.094      96.744
  O     -390.965     164.835      94.523
  H     -391.268     164.150      95.152
  H     -393.374     167.342      93.139
  H     -392.827     165.700      93.381
  H     -391.745     166.889      92.698

 6  7  8  9  10  11  12  13  14  15  25  28  32  33  34  35 0
 6-311+G(2d,p)
 ****
 36  39  40 0
 6-311+G(2d,p)
 ****
 1  2  3  4  5  16  17  18  19  20  21  22  23  24 0
 3-21G
 ****
 26  27  29  30  31  37  38  41  42  43  44  45  46  47 0
 3-21G
 ****
 48 0
 3-21G
 ****


