%nproc=1
%NoSave
%Mem=1900MB
#P OB98/GEN NMR

erre ene a

0 1
  C       70.071    -103.114    -352.438
  O       70.988    -102.213    -351.844
  H       69.232    -103.257    -351.753
  H       70.551    -104.079    -352.617
  H       69.699    -102.698    -353.376
  P       72.322    -101.893    -352.675
  C       73.817    -101.822    -350.572
  O       73.247    -101.071    -351.643
  C       74.007    -100.923    -349.342
  O       72.698    -100.601    -348.801
  C       74.822    -101.585    -348.230
  O       75.662    -100.603    -347.612
  C       73.765    -102.049    -347.239
  O       74.279    -102.158    -345.909
  C       72.691    -100.973    -347.406
  N       69.279    -101.164    -343.616
  C       70.435    -100.486    -343.754
  N       71.286    -100.481    -344.814
  C       70.793    -101.237    -345.815
  C       69.633    -101.986    -345.816
  C       68.849    -101.941    -344.640
  N       67.681    -102.644    -344.482
  N       69.494    -102.674    -347.012
  C       70.555    -102.320    -347.721
  N       71.380    -101.476    -347.029
  O       72.119    -101.248    -354.003
  O       73.034    -103.325    -352.712
  H       74.494    -101.252    -345.598
  H       72.998    -103.764    -351.837
  H       70.736     -99.873    -342.906
  H       70.777    -102.667    -348.728
  H       72.882    -100.077    -346.804
  H       73.386    -103.032    -347.539
  H       75.428    -102.416    -348.591
  H       74.460     -99.976    -349.656
  H       74.786    -102.235    -350.869
  H       67.175    -102.543    -343.613
  H       67.331    -103.211    -345.245
  H       73.140    -102.645    -350.338
  P       77.220    -100.938    -347.436
  C       77.466    -100.054    -345.018
  O       77.855     -99.888    -346.382
  O       77.997    -101.118    -348.695
  O       77.187    -102.294    -346.581
  H       77.914    -102.876    -346.885
  H       77.944     -99.309    -344.417
  H       77.758    -101.026    -344.680
  H       76.404     -99.951    -344.935

 6  7  8  9  10  11  12  13  14  15  25  28  32  33  34  35 0
 6-311+G(2d,p)
 ****
 36  39  40 0
 6-311+G(2d,p)
 ****
 1  2  3  4  5  16  17  18  19  20  21  22  23  24 0
 3-21G
 ****
 26  27  29  30  31  37  38  41  42  43  44  45  46  47 0
 3-21G
 ****
 48 0
 3-21G
 ****


