%nproc=1
%NoSave
%Mem=1900MB
#P OB98/GEN NMR

erre ene a

0 1
  C      -18.515    -151.346    -132.003
  O      -19.816    -151.330    -132.552
  P      -20.856    -152.522    -132.285
  C      -20.085    -153.844    -134.353
  O      -20.192    -153.831    -132.937
  C      -20.050    -155.273    -134.896
  O      -18.794    -155.906    -134.522
  C      -21.190    -156.175    -134.398
  O      -21.497    -157.065    -135.478
  C      -20.535    -156.928    -133.257
  O      -21.231    -158.121    -132.914
  C      -19.118    -157.123    -133.814
  N      -18.152    -157.423    -132.761
  C      -17.554    -158.685    -132.798
  O      -17.904    -159.515    -133.641
  N      -16.616    -159.001    -131.847
  C      -16.377    -158.167    -130.884
  N      -15.433    -158.532    -129.974
  C      -17.077    -156.878    -130.737
  C      -17.933    -156.566    -131.709
  O      -22.258    -152.250    -132.713
  O      -20.709    -152.805    -130.717
  H      -20.742    -158.565    -132.187
  H      -21.189    -152.115    -130.196
  H      -16.886    -156.241    -129.887
  H      -18.494    -155.640    -131.689
  H      -19.099    -157.942    -134.545
  H      -20.506    -156.289    -132.364
  H      -22.079    -155.624    -134.087
  H      -20.068    -155.217    -135.993
  H      -14.966    -159.418    -130.120
  H      -19.152    -153.342    -134.628
  H      -15.114    -157.923    -129.234
  H      -20.912    -153.279    -134.797
  P      -23.009    -157.461    -135.827
  C      -22.847    -159.624    -134.467
  O      -23.534    -158.397    -134.638
  O      -23.219    -158.010    -137.200
  O      -23.834    -156.103    -135.611
  H      -24.707    -156.182    -136.038
  H      -23.093    -160.036    -133.482
  H      -21.765    -159.481    -134.530
  H      -23.165    -160.332    -135.236
  H      -17.990    -150.463    -132.303
  H      -17.990    -152.209    -132.355
  H      -18.579    -151.378    -130.935

 3  4  5  6  7  8  9  10  11  12  13  23  27  28  29  30  32 0
 6-311+G(2d,p)
 ****
 34  35 0
 6-311+G(2d,p)
 ****
 1  2  14  15  16  17  18  19  20  21  22  24  25  26 0
 3-21G
 ****
 31  33  36  37  38  39  40  41  42  43  44  45  46 0
 3-21G
 ****


