%nproc=1
%NoSave
%Mem=1900MB
#P OB98/GEN NMR

erre ene a

0 1
  C      -45.627      43.970     -86.283
  O      -45.443      42.913     -85.353
  P      -46.661      42.567     -84.365
  C      -47.829      43.792     -82.383
  O      -46.765      43.789     -83.329
  C      -47.416      44.548     -81.127
  O      -46.356      43.855     -80.435
  C      -46.872      45.947     -81.390
  O      -47.907      46.901     -81.582
  C      -46.133      46.222     -80.090
  O      -47.065      46.629     -79.070
  C      -45.545      44.844     -79.758
  N      -40.916      46.877     -79.459
  C      -42.060      47.170     -78.741
  N      -41.971      48.194     -77.861
  N      -43.187      46.520     -78.871
  C      -43.130      45.530     -79.795
  C      -42.060      45.142     -80.567
  C      -40.820      45.878     -80.421
  O      -39.791      45.699     -81.064
  N      -42.383      44.091     -81.380
  C      -43.647      43.839     -81.105
  N      -44.160      44.712     -80.182
  O      -46.080      41.375     -83.468
  O      -47.930      42.187     -85.047
  H      -47.601      47.353     -79.454
  H      -46.813      40.904     -83.021
  H      -40.074      47.411     -79.328
  H      -44.236      43.047     -81.560
  H      -45.593      44.628     -78.685
  H      -45.392      47.022     -80.183
  H      -41.148      48.772     -77.762
  H      -46.157      45.946     -82.224
  H      -42.808      48.474     -77.370
  H      -48.285      44.591     -80.458
  H      -48.082      42.760     -82.127
  H      -48.711      44.257     -82.837
  P      -47.671      47.998     -82.733
  C      -45.778      49.711     -83.215
  O      -46.329      48.768     -82.315
  O      -48.834      49.063     -82.454
  O      -47.718      47.458     -84.123
  H      -49.064      49.536     -83.276
  H      -45.044      50.321     -82.678
  H      -46.548      50.370     -83.620
  H      -45.270      49.192     -84.031
  H      -44.740      44.087     -86.871
  H      -45.827      44.879     -85.755
  H      -46.452      43.741     -86.924

 3  4  5  6  7  8  9  10  11  12  23  26  30  31 0
 6-311+G(2d,p)
 ****
 33  35  36  37  38 0
 6-311+G(2d,p)
 ****
 1  2  13  14  15  16  17  18  19  20  21  22  24  25 0
 3-21G
 ****
 27  28  29  32  34  39  40  41  42  43  44  45  46  47  48  49 0
 3-21G
 ****


