%nproc=1
%NoSave
%Mem=1900MB
#P OB98/GEN NMR

erre ene a

0 1
  C       41.532     -58.500      65.744
  O       42.060     -59.546      64.942
  P       41.638     -61.051      65.311
  C       43.691     -61.367      66.854
  O       42.272     -61.363      66.755
  C       44.133     -61.747      68.264
  O       43.694     -60.713      69.190
  C       43.569     -63.086      68.767
  O       44.608     -63.818      69.434
  C       42.550     -62.671      69.818
  O       42.338     -63.691      70.787
  C       43.214     -61.406      70.362
  N       41.117     -60.727      74.908
  C       42.156     -61.556      74.530
  N       42.666     -62.359      75.492
  N       42.648     -61.601      73.320
  C       42.061     -60.721      72.471
  C       41.031     -59.843      72.728
  C       40.457     -59.850      74.059
  O       39.479     -59.204      74.431
  N       40.718     -59.101      71.617
  C       41.551     -59.530      70.688
  N       42.352     -60.549      71.143
  O       42.529     -61.925      64.307
  O       40.189     -61.364      65.159
  H       42.015     -63.254      71.596
  H       41.953     -62.507      63.778
  H       40.765     -60.747      75.852
  H       41.587     -59.161      69.669
  H       44.083     -61.662      70.984
  H       41.597     -62.448      69.327
  H       42.358     -62.350      76.453
  H       43.123     -63.707      67.985
  H       43.445     -62.956      75.240
  H       45.231     -61.753      68.295
  H       44.072     -60.369      66.614
  H       44.096     -62.083      66.130
  P       44.830     -65.330      68.938
  C       43.061     -66.464      70.483
  O       43.431     -66.076      69.174
  O       45.788     -65.952      70.065
  O       45.412     -65.441      67.568
  H       46.295     -66.703      69.704
  H       43.735     -66.051      71.242
  H       43.079     -67.553      70.551
  H       42.046     -66.112      70.686
  H       41.894     -57.559      65.386
  H       41.840     -58.639      66.759
  H       40.463     -58.514      65.691

 3  4  5  6  7  8  9  10  11  12  23  26  30  31  33  0
 6-311+G(2d,p)
 ****
 35  36  37  38 0
 6-311+G(2d,p)
 ****
 1  2  13  14  15  16  17  18  19  20  21  22  24  25  27  28  29 0
 3-21G
 ****
 32  34  39  40  41  42  43  44  45  46  47  48  49 0
 3-21G
 ****


