%nproc=1
%NoSave
%Mem=1900MB
#P OB98/GEN NMR

erre ene a

0 1
  C      -21.115    -893.650     167.738
  O      -22.088    -893.560     166.729
  H      -20.994    -892.680     168.239
  H      -21.434    -894.390     168.475
  H      -20.157    -893.970     167.314
  P      -21.823    -892.490     165.553
  C      -21.169    -894.040     163.582
  O      -22.177    -893.210     164.160
  C      -21.808    -894.990     162.571
  O      -22.761    -895.850     163.260
  C      -22.537    -894.310     161.400
  O      -21.989    -894.710     160.151
  C      -23.971    -894.820     161.484
  O      -24.548    -895.110     160.213
  C      -23.834    -896.080     162.343
  N      -28.035    -898.980     162.281
  C      -26.818    -899.160     161.706
  N      -25.706    -898.400     161.848
  C      -25.928    -897.380     162.710
  C      -27.104    -897.100     163.389
  C      -28.205    -897.940     163.131
  N      -29.448    -897.740     163.678
  N      -26.934    -895.970     164.181
  C      -25.714    -895.560     163.944
  N      -25.067    -896.370     163.049
  O      -20.219    -892.360     165.529
  O      -22.472    -891.160     165.753
  H      -24.514    -894.280     159.692
  H      -19.965    -891.430     165.512
  H      -26.738    -900.000     161.039
  H      -25.258    -894.670     164.355
  H      -23.570    -896.960     161.734
  H      -24.590    -894.070     161.994
  H      -22.504    -893.210     161.481
  H      -21.018    -895.650     162.177
  H      -20.689    -894.630     164.374
  H      -30.199    -898.310     163.352
  H      -29.604    -896.900     164.239
  H      -20.418    -893.410     163.106
  P      -21.895    -893.590     158.986
  C      -19.312    -893.800     158.883
  O      -20.539    -893.840     158.176
  O      -21.600    -892.250     159.816
  O      -23.146    -893.480     158.170
  H      -21.937    -891.470     159.325
  H      -18.504    -893.985     158.206
  H      -19.316    -894.549     159.647
  H      -19.189    -892.836     159.330

 6  7  8  9  10  11  12  13  14  15  25  28  32  33  34  35 0
 6-311+G(2d,p)
 ****
 36  39  40 0
 6-311+G(2d,p)
 ****
 1  2  3  4  5  16  17  18  19  20  21  22  23  24 0
 3-21G
 ****
 26  27  29  30  31  37  38  41  42  43  44  45  46  47  48 0
 3-21G
 ****


