%nproc=1
%NoSave
%Mem=1900MB
#P OB98/GEN NMR

erre ene a

0 1
  C     -122.841     703.339    -954.488
  O     -122.050     704.490    -954.247
  P     -122.751     705.911    -954.006
  C     -124.452     707.283    -955.385
  O     -123.425     706.305    -955.416
  C     -125.012     707.540    -956.781
  O     -125.714     706.372    -957.272
  C     -126.016     708.687    -956.853
  O     -125.341     709.931    -956.830
  C     -126.713     708.380    -958.168
  O     -125.966     708.866    -959.296
  C     -126.754     706.837    -958.158
  N     -128.064     706.307    -957.779
  C     -128.592     705.330    -958.639
  O     -127.987     704.996    -959.665
  N     -129.838     704.814    -958.356
  C     -130.491     705.235    -957.309
  N     -131.708     704.677    -957.085
  C     -129.969     706.276    -956.402
  C     -128.764     706.768    -956.694
  O     -121.884     706.959    -953.398
  O     -124.030     705.544    -953.097
  H     -126.436     708.539    -960.092
  H     -123.763     705.339    -952.173
  H     -130.551     706.617    -955.555
  H     -128.311     707.539    -956.083
  H     -126.498     706.440    -959.153
  H     -127.715     708.835    -958.222
  H     -126.723     708.608    -956.017
  H     -124.158     707.735    -957.455
  H     -132.035     703.996    -957.746
  H     -124.039     708.210    -954.983
  H     -132.319     704.965    -956.328
  H     -125.253     706.941    -954.706
  P     -126.182     711.293    -956.794
  C     -127.914     712.441    -958.290
  O     -126.912     711.456    -958.210
  O     -125.444     712.500    -956.299
  O     -127.407     710.953    -955.799
  H     -127.541     711.697    -955.184
  H     -128.083     712.687    -959.343
  H     -127.622     713.349    -957.763
  H     -128.849     712.047    -957.864
  H     -122.204     702.490    -954.625
  H     -123.429     703.489    -955.369
  H     -123.487     703.169    -953.652

 3  4  5  6  7  8  9  10  11  12  13  23  27  28  29  30  32 0
 6-311+G(2d,p)
 ****
 34  35 0
 6-311+G(2d,p)
 ****
 1  2  14  15  16  17  18  19  20  21  22  24  25  26 0
 3-21G
 ****
 31  33  36  37  38  39  40  41  42  43  44  45  46 0
 3-21G
 ****


