%nproc=1
%NoSave
%Mem=1900MB
#P OB98/GEN NMR

erre ene a

0 1
  C       79.224      31.675      40.970
  O       78.464      32.028      42.111
  P       77.822      30.834      42.974
  C       75.549      30.921      41.718
  O       76.702      30.154      42.046
  C       74.359      30.021      41.380
  O       74.710      29.189      40.245
  C       73.923      29.103      42.524
  O       72.498      29.002      42.488
  C       74.523      27.759      42.149
  O       73.811      26.676      42.746
  C       74.448      27.816      40.614
  N       75.398      26.905      39.983
  C       74.998      25.570      39.848
  O       73.927      25.197      40.326
  N       75.846      24.686      39.224
  C       77.031      25.076      38.867
  N       77.830      24.160      38.251
  C       77.536      26.442      39.104
  C       76.669      27.302      39.637
  O       76.963      31.610      44.079
  O       78.815      29.899      43.584
  H       74.306      25.849      42.561
  H       76.936      31.109      44.918
  H       78.545      26.705      38.817
  H       76.946      28.332      39.824
  H       73.437      27.563      40.266
  H       75.568      27.712      42.481
  H       74.243      29.467      43.506
  H       73.523      30.661      41.066
  H       77.466      23.226      38.115
  H       75.769      31.539      40.842
  H       78.770      24.372      37.937
  H       75.305      31.589      42.552
  P       71.696      29.277      43.848
  C       71.850      26.776      44.412
  O       72.135      28.095      44.839
  O       70.212      28.820      43.442
  O       71.699      30.663      44.403
  H       69.599      29.001      44.179
  H       72.320      26.073      45.104
  H       72.248      26.602      43.409
  H       70.770      26.608      44.422
  H       79.588      32.562      40.495
  H       78.608      31.131      40.285
  H       80.051      31.065      41.267

 3  4  5  6  7  8  9  10  11  12  13  21  23  27  28  29  30  32 0
 6-311+G(2d,p)
 ****
 34  35 0
 6-311+G(2d,p)
 ****
 1  2  14  15  16  17  18  19  20  22  24  25  26 0
 3-21G
 ****
 31  33  36  37  38  39  40  41  42  43  44  45  46 0
 3-21G
 ****


