%nproc=1
%NoSave
%Mem=1900MB
#P OB98/GEN NMR

erre ene a

0 1
  C      702.887     885.919    -370.486
  O      703.358     885.631    -369.155
  P      704.026     884.207    -368.928
  C      706.459     885.093    -369.305
  O      705.448     884.179    -369.719
  C      707.627     884.314    -368.697
  O      707.264     883.656    -367.461
  C      708.154     883.184    -369.589
  O      708.907     883.705    -370.676
  C      708.941     882.367    -368.589
  O      710.229     882.968    -368.353
  C      708.070     882.487    -367.323
  N      707.369     878.241    -364.508
  C      708.319     879.203    -364.481
  N      708.446     880.299    -365.264
  C      707.426     880.363    -366.154
  C      706.379     879.478    -366.289
  C      706.369     878.358    -365.422
  N      705.396     877.383    -365.462
  N      705.535     879.881    -367.301
  C      706.061     880.981    -367.780
  N      707.209     881.323    -367.106
  O      703.114     883.202    -369.775
  O      704.105     883.787    -367.501
  H      710.068     883.816    -367.897
  H      702.573     882.653    -369.180
  H      709.089     879.067    -363.733
  H      705.680     881.556    -368.616
  H      708.686     882.603    -366.402
  H      709.106     881.318    -368.923
  H      707.296     882.598    -369.987
  H      708.443     885.021    -368.492
  H      706.060     885.796    -368.572
  H      705.497     876.591    -364.859
  H      704.689     877.423    -366.192
  H      706.779     885.678    -370.166
  P      708.686     883.029    -372.120
  C      708.125     885.305    -373.152
  O      707.655     884.014    -372.861
  O      707.784     881.757    -371.755
  O      709.951     882.740    -372.867
  H      707.049     881.996    -371.158
  H      707.333     885.866    -373.683
  H      709.013     885.255    -373.798
  H      708.361     885.846    -372.226
  H      702.461     886.900    -370.509
  H      702.144     885.201    -370.764
  H      703.706     885.869    -371.173

 3  4  5  6  7  8  9  10  11  12  22  25  29  30  31  32 0
 6-311+G(2d,p)
 ****
 33  36  37 0
 6-311+G(2d,p)
 ****
 1  2  13  14  15  16  17  18  19  20  21  23  24  26 0
 3-21G
 ****
 27  28  34  35  38  39  40  41  42  43  44  45  46  47  48 0
 3-21G
 ****


