%nproc=1
%NoSave
%Mem=1900MB
#P OB98/GEN NMR

erre ene a

0 1
  C      -34.876      -6.255      11.535
  O      -35.382      -7.335      10.772
  P      -36.861      -7.869      11.088
  C      -39.240      -6.804      10.763
  O      -37.845      -6.616      10.912
  C      -40.003      -5.965      11.792
  O      -39.891      -6.602      13.095
  C      -39.494      -4.526      11.941
  O      -40.634      -3.698      12.207
  C      -38.599      -4.609      13.164
  O      -38.404      -3.350      13.788
  C      -39.372      -5.622      14.015
  N      -38.552      -6.266      15.041
  C      -39.004      -6.224      16.356
  O      -40.039      -5.660      16.707
  N      -38.199      -6.838      17.281
  C      -36.988      -7.415      17.038
  O      -36.301      -7.935      17.908
  C      -36.540      -7.387      15.639
  C      -37.333      -6.833      14.721
  O      -36.781      -8.084      12.670
  O      -37.241      -9.080      10.307
  H      -36.230      -7.418      13.117
  H      -39.264      -3.048      14.134
  H      -38.526      -6.852      18.236
  H      -35.576      -7.822      15.407
  H      -37.023      -6.799      13.683
  H      -40.234      -5.136      14.486
  H      -37.618      -4.999      12.871
  H      -38.977      -4.169      11.046
  H      -41.065      -5.969      11.519
  H      -39.482      -7.859      10.914
  H      -39.534      -6.534       9.744
  P      -40.579      -2.158      11.743
  C      -40.430      -1.023       9.390
  O      -40.145      -2.138      10.203
  O      -39.243      -1.684      12.496
  O      -41.774      -1.345      12.117
  H      -38.500      -2.293      12.365
  H      -39.781      -1.052       8.511
  H      -40.253      -0.085       9.922
  H      -41.472      -1.065       9.061
  H      -33.886      -6.019      11.206
  H      -34.852      -6.529      12.569
  H      -35.508      -5.401      11.407

 3  4  5  6  7  8  9  10  11  12  13  24  28  29  30  31  32 0
 6-311+G(2d,p)
 ****
 33  34 0
 6-311+G(2d,p)
 ****
 1  2  14  15  16  17  18  19  20  21  22  23  25  26  27 0
 3-21G
 ****
 35  36  37  38  39  40  41  42  43  44  45 0
 3-21G
 ****


