%nproc=1
%NoSave
%Mem=1900MB
#P OB98/GEN NMR

erre ene a

0 1
  C       91.232    -772.392    -283.140
  O       90.349    -771.892    -284.123
  H       92.259    -772.287    -283.505
  H       91.035    -773.452    -282.962
  H       91.135    -771.830    -282.208
  P       88.790    -771.785    -283.777
  C       89.030    -769.485    -282.629
  O       88.659    -770.853    -282.480
  C       87.839    -768.591    -282.296
  O       86.799    -768.756    -283.285
  C       87.187    -768.895    -280.955
  O       87.956    -768.384    -279.884
  C       85.829    -768.228    -281.137
  O       85.916    -766.819    -280.905
  C       85.537    -768.525    -282.626
  N       84.628    -769.659    -282.810
  C       83.366    -769.543    -282.236
  O       83.014    -768.573    -281.565
  N       82.529    -770.613    -282.417
  C       82.857    -771.796    -283.014
  O       82.090    -772.755    -283.075
  C       84.209    -771.869    -283.581
  C       85.018    -770.814    -283.458
  O       88.056    -773.083    -283.696
  O       88.207    -770.856    -284.945
  H       86.121    -766.706    -279.953
  H       87.715    -771.409    -285.580
  H       81.614    -770.552    -281.995
  H       84.500    -772.781    -284.074
  H       86.023    -770.852    -283.864
  H       85.085    -767.643    -283.105
  H       85.084    -768.623    -280.452
  H       87.042    -769.974    -280.847
  H       88.177    -767.545    -282.338
  H       89.344    -769.316    -283.662
  H       89.874    -769.274    -281.962
  P       87.771    -768.987    -278.412
  C       89.381    -770.970    -278.681
  O       88.029    -770.571    -278.489
  O       86.512    -768.583    -277.715
  O       89.052    -768.452    -277.620
  H       88.763    -767.902    -276.871
  H       89.436    -772.038    -278.717
  H       89.978    -770.609    -277.870
  H       89.746    -770.563    -279.601

 6  7  8  9  10  11  12  13  14  15  16  26  31  32  33  34  35 0
 6-311+G(2d,p)
 ****
 36  37 0
 6-311+G(2d,p)
 ****
 1  2  3  4  5  17  18  19  20  21  22  23  24  25 0
 3-21G
 ****
 27  28  29  30  38  39  40  41  42  43  44  45 0
 3-21G
 ****


