%nproc=1
%NoSave
%Mem=1900MB
#P OB98/GEN NMR

erre ene a

0 1
  C     -119.949      58.060     294.475
  O     -119.636      56.696     294.292
  H     -119.420      58.424     295.358
  H     -121.022      58.188     294.633
  H     -119.626      58.644     293.609
  P     -120.336      55.897     293.092
  C     -121.631      54.224     294.569
  O     -121.719      55.319     293.664
  C     -122.875      53.336     294.445
  O     -122.750      52.265     295.416
  C     -124.174      54.099     294.733
  O     -125.144      53.958     293.698
  C     -124.549      53.631     296.135
  O     -125.931      53.705     296.425
  C     -123.955      52.222     296.202
  N     -123.666      51.768     297.562
  C     -124.739      51.320     298.327
  O     -125.905      51.268     297.948
  N     -124.427      50.912     299.600
  C     -123.187      50.920     300.168
  O     -122.971      50.539     301.310
  C     -122.101      51.429     299.318
  C     -122.385      51.824     298.073
  O     -119.478      54.891     292.401
  O     -120.817      57.048     292.088
  H     -126.189      54.649     296.360
  H     -120.226      57.070     291.311
  H     -125.193      50.572     300.160
  H     -121.105      51.462     299.741
  H     -121.606      52.203     297.420
  H     -124.632      51.497     295.750
  H     -124.034      54.270     296.862
  H     -123.993      55.180     294.759
  H     -122.885      52.876     293.451
  H     -121.554      54.630     295.583
  H     -120.733      53.636     294.351
  P     -125.629      55.126     292.729
  C     -127.597      55.970     294.259
  O     -126.363      56.244     293.605
  O     -126.316      54.694     291.478
  O     -124.257      55.859     292.297
  H     -124.398      56.192     291.390
  H     -127.921      56.841     294.789
  H     -127.464      55.162     294.948
  H     -128.334      55.701     293.532

 6  7  8  9  10  11  12  13  14  15  16  26  31  32  33  34  35 0
 6-311+G(2d,p)
 ****
 36  37 0
 6-311+G(2d,p)
 ****
 1  2  3  4  5  17  18  19  20  21  22  23  24  25 0
 3-21G
 ****
 27  28  29  30  38  39  40  41  42  43  44  45 0
 3-21G
 ****


