%nproc=1
%NoSave
%Mem=1900MB
#P OB98/GEN NMR

erre ene a

0 1
  C       -7.697    -893.570     129.909
  O       -7.289    -894.830     129.410
  H       -8.573    -893.710     130.547
  H       -7.980    -892.910     129.080
  H       -6.903    -893.110     130.492
  P       -6.021    -894.880     128.433
  C       -4.362    -895.260     130.381
  O       -4.795    -894.390     129.348
  C       -3.076    -895.980     129.972
  O       -2.052    -895.030     129.578
  C       -2.418    -896.820     131.068
  O       -3.108    -898.020     131.357
  C       -1.063    -897.050     130.445
  O       -1.179    -898.050     129.417
  C       -0.765    -895.660     129.843
  N        0.042    -894.820     130.739
  C        1.311    -895.310     131.076
  O        1.700    -896.380     130.643
  N        2.092    -894.570     131.924
  C        1.644    -893.450     132.421
  N        2.466    -892.770     133.261
  C        0.306    -892.920     132.111
  C       -0.434    -893.650     131.270
  O       -6.168    -894.180     127.128
  O       -5.699    -896.450     128.281
  H       -1.851    -897.750     128.788
  H       -4.929    -896.540     127.676
  H       -0.035    -892.000     132.571
  H       -1.430    -893.320     130.993
  H       -0.247    -895.750     128.883
  H       -0.316    -897.410     131.156
  H       -2.294    -896.210     131.990
  H       -3.312    -896.590     129.088
  H        3.374    -893.170     133.462
  H       -5.159    -895.980     130.587
  H        2.161    -891.940     133.751
  H       -4.156    -894.680     131.297
  P       -3.109    -898.530     132.884
  C       -5.584    -897.800     133.313
  O       -4.211    -897.640     133.644
  O       -1.718    -897.960     133.439
  O       -3.248    -900.000     133.070
  H       -1.037    -898.660     133.438
  H       -6.174    -897.136     133.909
  H       -5.882    -898.810     133.504
  H       -5.730    -897.575     132.277

 6  7  8  9  10  11  12  13  14  15  16  26  30  31  32  33  35 0
 6-311+G(2d,p)
 ****
 37  38 0
 6-311+G(2d,p)
 ****
 1  2  3  4  5  17  18  19  20  21  22  23  24  25 0
 3-21G
 ****
 27  28  29  34  36  39  40  41  42  43  44  45  46 0
 3-21G
 ****


