%nproc=1
%NoSave
%Mem=1900MB
#P OB98/GEN NMR

erre ene a

0 1
  C     -303.845     188.807    -168.956
  O     -304.508     189.670    -168.048
  P     -304.310     189.369    -166.481
  C     -304.612     191.913    -165.976
  O     -305.010     190.579    -165.700
  C     -305.019     192.822    -164.815
  O     -306.451     192.821    -164.656
  C     -304.439     192.414    -163.467
  O     -303.110     192.882    -163.335
  C     -305.422     193.069    -162.503
  O     -305.118     194.464    -162.329
  C     -306.758     192.882    -163.235
  N     -310.582     191.160    -160.413
  C     -310.000     192.412    -160.452
  N     -310.548     193.353    -159.651
  N     -308.978     192.717    -161.205
  C     -308.528     191.673    -161.942
  C     -309.009     190.386    -161.981
  C     -310.170     190.077    -161.179
  O     -310.783     189.013    -161.185
  N     -308.274     189.600    -162.832
  C     -307.376     190.423    -163.330
  N     -307.497     191.697    -162.841
  O     -302.747     189.611    -166.261
  O     -304.752     188.011    -166.034
  H     -305.577     194.797    -161.537
  H     -302.261     188.765    -166.265
  H     -311.378     190.989    -159.825
  H     -306.630     190.150    -164.063
  H     -307.431     193.737    -163.090
  H     -305.389     192.612    -161.509
  H     -311.320     193.185    -159.025
  H     -304.477     191.323    -163.351
  H     -310.131     194.277    -159.661
  H     -304.714     193.847    -165.067
  H     -305.104     192.256    -166.890
  H     -303.528     191.940    -166.127
  P     -302.217     192.255    -162.159
  C     -299.938     193.167    -163.009
  O     -300.926     193.188    -161.996
  O     -301.640     190.911    -162.813
  O     -302.964     191.969    -160.900
  H     -301.583     190.215    -162.133
  H     -299.454     194.143    -163.046
  H     -300.369     192.943    -163.990
  H     -299.190     192.408    -162.764
  H     -304.057     189.114    -169.959
  H     -304.188     187.804    -168.810
  H     -302.790     188.852    -168.785

 3  4  5  6  7  8  9  10  11  12  23  26  30  31 0
 6-311+G(2d,p)
 ****
 33  35  36  37  38 0
 6-311+G(2d,p)
 ****
 1  2  13  14  15  16  17  18  19  20  21  22  24  25 0
 3-21G
 ****
 27  28  29  32  34  39  40  41  42  43  44  45  46  47  48  49 0
 3-21G
 ****


