%nproc=1
%NoSave
%Mem=1900MB
#P OB98/GEN NMR

erre ene a

0 1
  C      126.950    -114.882    -667.296
  O      125.953    -114.131    -667.970
  P      126.295    -113.618    -669.454
  C      125.308    -115.472    -670.993
  O      126.460    -114.924    -670.366
  C      125.469    -115.439    -672.516
  O      125.541    -114.075    -672.976
  C      126.732    -116.112    -673.035
  O      126.609    -117.526    -673.003
  C      126.813    -115.515    -674.430
  O      125.899    -116.184    -675.312
  C      126.342    -114.065    -674.187
  N      130.424    -111.952    -676.447
  C      129.538    -112.878    -676.873
  N      128.492    -113.405    -676.206
  C      128.397    -112.876    -674.972
  C      129.242    -111.943    -674.399
  C      130.296    -111.468    -675.189
  N      131.205    -110.529    -674.750
  N      128.841    -111.659    -673.104
  C      127.771    -112.401    -672.913
  N      127.452    -113.139    -674.019
  O      127.789    -113.071    -669.314
  O      125.358    -112.575    -669.987
  H      126.225    -117.095    -675.431
  H      127.938    -112.303    -669.901
  H      129.688    -113.247    -677.883
  H      127.194    -112.426    -671.999
  H      125.715    -113.683    -674.997
  H      127.813    -115.591    -674.877
  H      127.599    -115.802    -672.437
  H      124.577    -115.905    -672.958
  H      124.427    -114.884    -670.721
  H      132.011    -110.356    -675.324
  H      131.189    -110.278    -673.767
  H      125.161    -116.495    -670.639
  P      127.943    -118.385    -673.261
  C      129.223    -117.356    -671.286
  O      129.118    -117.445    -672.698
  O      128.115    -118.244    -674.843
  O      127.900    -119.779    -672.723
  H      128.032    -117.324    -675.139
  H      130.090    -116.738    -671.035
  H      129.362    -118.350    -670.852
  H      128.327    -116.891    -670.873
  H      126.594    -115.158    -666.326
  H      127.836    -114.290    -667.196
  H      127.173    -115.765    -667.858

 3  4  5  6  7  8  9  10  11  12  22  25  29  30  31  32 0
 6-311+G(2d,p)
 ****
 33  36  37 0
 6-311+G(2d,p)
 ****
 1  2  13  14  15  16  17  18  19  20  21  23  24  26 0
 3-21G
 ****
 27  28  34  35  38  39  40  41  42  43  44  45  46  47  48 0
 3-21G
 ****


