%nproc=1
%NoSave
%Mem=1900MB
#P OB98/GEN NMR

erre ene a

0 1
  C      294.741     153.624     -75.208
  O      294.787     154.250     -73.941
  P      294.696     153.376     -72.602
  C      297.091     153.929     -71.849
  O      296.176     152.899     -72.212
  C      297.576     153.728     -70.415
  O      298.350     152.514     -70.300
  C      298.495     154.830     -69.912
  O      297.789     156.028     -69.640
  C      299.117     154.158     -68.695
  O      298.233     154.223     -67.568
  C      299.260     152.702     -69.187
  N      300.626     152.368     -69.554
  C      301.589     152.530     -68.553
  O      301.280     153.010     -67.460
  N      302.883     152.154     -68.820
  C      303.206     151.772     -70.014
  N      304.487     151.354     -70.206
  C      302.251     151.742     -71.140
  C      300.987     152.027     -70.837
  O      293.673     152.289     -72.619
  O      294.360     154.448     -71.460
  H      293.598     154.127     -70.940
  H      297.479     153.638     -67.771
  H      302.588     151.482     -72.133
  H      300.211     152.012     -71.597
  H      298.924     152.005     -68.407
  H      300.060     154.628     -68.395
  H      299.274     155.029     -70.657
  H      296.694     153.638     -69.765
  H      305.108     151.371     -69.405
  H      296.580     154.893     -71.933
  H      304.754     150.746     -70.977
  H      297.934     153.924     -72.546
  P      297.799     157.152     -70.784
  C      295.336     156.866     -71.524
  O      296.698     156.741     -71.870
  O      299.191     156.900     -71.537
  O      297.702     158.555     -70.278
  H      299.575     157.753     -71.813
  H      294.741     156.892     -72.441
  H      295.148     157.783     -70.957
  H      295.028     156.002     -70.929
  H      294.815     154.366     -75.975
  H      293.817     153.095     -75.311
  H      295.557     152.937     -75.296

 3  4  5  6  7  8  9  10  11  12  13  24  27  28  29  30  32 0
 6-311+G(2d,p)
 ****
 34  35 0
 6-311+G(2d,p)
 ****
 1  2  14  15  16  17  18  19  20  21  22  23  25  26 0
 3-21G
 ****
 31  33  36  37  38  39  40  41  42  43  44  45  46 0
 3-21G
 ****


