%nproc=1
%NoSave
%Mem=1900MB
#P OB98/GEN NMR

erre ene a

0 1
  C        7.294       9.054      16.011
  O        7.268       7.855      16.764
  P        5.886       7.320      17.369
  C        3.656       6.498      16.309
  O        4.841       7.249      16.157
  C        2.450       7.240      15.719
  O        2.046       8.256      16.668
  C        2.727       7.976      14.412
  O        1.480       8.253      13.773
  C        3.342       9.266      14.907
  O        3.277      10.303      13.933
  C        2.553       9.533      16.214
  N        3.410      10.140      17.249
  C        3.068       9.891      18.574
  O        2.149       9.140      18.899
  N        3.763      10.601      19.515
  C        4.709      11.546      19.248
  O        5.094      12.376      20.062
  C        5.191      11.587      17.858
  C        4.511      10.912      16.929
  O        5.376       8.560      18.241
  O        5.996       6.077      18.183
  H        3.700      11.097      14.334
  H        5.625       8.440      19.176
  H        3.418      10.528      20.464
  H        6.042      12.215      17.632
  H        4.811      10.966      15.887
  H        1.706      10.207      16.039
  H        4.401       9.093      15.136
  H        3.394       7.442      13.729
  H        1.616       6.539      15.598
  H        3.497       6.287      17.370
  H        3.755       5.527      15.812
  P        1.461       8.344      12.172
  C        1.564       6.588      10.303
  O        1.918       6.905      11.634
  O        2.176       9.510      11.576
  O       -0.105       8.368      11.830
  H       -0.240       8.716      10.930
  H        2.309       5.901       9.894
  H        1.522       7.482       9.675
  H        0.588       6.096      10.298
  H        8.295       9.252      15.691
  H        6.947       9.864      16.618
  H        6.660       8.952      15.155

 3  4  5  6  7  8  9  10  11  12  13  23  28  29  30  31  32 0
 6-311+G(2d,p)
 ****
 33  34 0
 6-311+G(2d,p)
 ****
 1  2  14  15  16  17  18  19  20  21  22  24  25  26  27 0
 3-21G
 ****
 35  36  37  38  39  40  41  42  43  44  45 0
 3-21G
 ****


