%nproc=1
%NoSave
%Mem=1900MB
#P OB98/GEN NMR

erre ene a

0 1
  C      654.204     -71.104       2.724
  O      653.670     -71.126       4.055
  P      652.732     -69.958       4.637
  C      650.528     -71.287       4.841
  O      651.220     -70.224       4.187
  C      649.007     -71.085       4.798
  O      648.540     -71.018       3.439
  C      648.198     -72.198       5.451
  O      648.240     -72.101       6.863
  C      646.818     -71.952       4.839
  O      646.114     -70.919       5.544
  C      647.183     -71.497       3.411
  N      647.009     -72.559       2.422
  C      645.698     -72.798       1.991
  O      644.755     -72.173       2.478
  N      645.487     -73.768       1.031
  C      646.486     -74.473       0.602
  N      646.221     -75.415      -0.353
  C      647.866     -74.316       1.098
  C      648.053     -73.348       1.999
  O      653.228     -68.581       4.343
  O      652.700     -70.211       6.225
  H      646.032     -71.214       6.474
  H      652.595     -69.355       6.682
  H      648.666     -74.951       0.735
  H      649.038     -73.151       2.408
  H      646.562     -70.638       3.111
  H      646.185     -72.846       4.866
  H      648.575     -73.174       5.126
  H      648.783     -70.114       5.273
  H      645.270     -75.493      -0.678
  H      650.864     -71.321       5.887
  H      646.927     -76.013      -0.753
  H      650.799     -72.236       4.363
  P      648.620     -73.391       7.747
  C      651.151     -73.010       8.002
  O      650.135     -73.787       7.391
  O      647.640     -74.521       7.682
  O      648.740     -72.814       9.232
  H      648.478     -73.515       9.858
  H      652.076     -73.588       8.022
  H      650.870     -72.737       9.027
  H      651.310     -72.102       7.414
  H      654.795     -71.981       2.562
  H      654.815     -70.234       2.599
  H      653.401     -71.080       2.018

 3  4  5  6  7  8  9  10  11  12  13  23  27  28  29  30  32 0
 6-311+G(2d,p)
 ****
 34  35 0
 6-311+G(2d,p)
 ****
 1  2  14  15  16  17  18  19  20  21  22  24  25  26 0
 3-21G
 ****
 31  33  36  37  38  39  40  41  42  43  44  45  46 0
 3-21G
 ****


