%nproc=1
%NoSave
%Mem=1900MB
#P OB98/GEN NMR

erre ene a

0 1
  C      295.102     331.215      49.948
  O      293.811     331.758      49.720
  P      292.880     331.231      48.522
  C      290.948     330.526      50.087
  O      291.943     330.108      49.171
  C      289.552     330.307      49.501
  O      288.570     330.496      50.551
  C      289.194     331.256      48.352
  O      288.380     330.520      47.430
  C      288.383     332.328      49.042
  O      287.537     333.042      48.148
  C      287.640     331.498      50.095
  N      287.155     332.312      51.210
  C      286.146     333.240      50.940
  O      285.704     333.384      49.802
  N      285.660     333.991      51.982
  C      286.188     333.890      53.157
  N      285.628     334.612      54.166
  C      287.324     332.999      53.460
  C      287.733     332.230      52.455
  O      293.620     330.799      47.301
  O      291.847     332.423      48.273
  H      286.922     332.406      47.736
  H      292.199     333.119      47.663
  H      287.751     332.969      54.451
  H      288.546     331.534      52.587
  H      286.805     330.962      49.634
  H      289.055     333.055      49.512
  H      290.075     331.638      47.827
  H      289.480     329.261      49.173
  H      284.747     335.071      53.965
  H      291.084     331.597      50.281
  H      285.758     334.350      55.136
  H      291.066     329.987      51.036
  P      288.451     330.906      45.875
  C      290.285     329.177      45.249
  O      289.915     330.540      45.337
  O      288.518     332.508      45.942
  O      287.293     330.481      45.031
  H      288.160     332.880      45.111
  H      291.302     329.117      44.857
  H      289.618     328.646      44.568
  H      290.258     328.711      46.235
  H      295.551     331.703      50.788
  H      295.711     331.366      49.081
  H      295.018     330.167      50.147

 3  4  5  6  7  8  9  10  11  12  13  23  27  28  29  30  32 0
 6-311+G(2d,p)
 ****
 34  35 0
 6-311+G(2d,p)
 ****
 1  2  14  15  16  17  18  19  20  21  22  24  25  26 0
 3-21G
 ****
 31  33  36  37  38  39  40  41  42  43  44  45  46 0
 3-21G
 ****


