%nproc=1
%NoSave
%Mem=1900MB
#P OB98/GEN NMR

erre ene a

0 1
  C     -154.047     267.987     136.748
  O     -154.314     267.649     138.117
  P     -155.781     267.679     138.764
  C     -156.829     265.334     138.443
  O     -156.116     266.206     139.312
  C     -157.816     264.468     139.232
  O     -158.895     264.029     138.372
  C     -157.242     263.178     139.799
  O     -156.398     263.405     140.911
  C     -158.516     262.402     140.122
  O     -159.040     262.771     141.405
  C     -159.477     262.866     139.009
  N     -159.762     261.824     138.036
  C     -160.405     260.681     138.514
  O     -160.633     260.548     139.716
  N     -160.762     259.704     137.615
  C     -160.409     259.814     136.372
  N     -160.805     258.823     135.523
  C     -159.610     260.938     135.855
  C     -159.327     261.900     136.732
  O     -156.832     268.236     137.862
  O     -155.638     268.559     140.094
  H     -156.498     268.966     140.309
  H     -159.051     263.747     141.437
  H     -159.302     260.970     134.820
  H     -158.755     262.772     136.432
  H     -160.418     263.219     139.444
  H     -158.346     261.321     140.142
  H     -156.687     262.654     139.010
  H     -158.240     265.085     140.037
  H     -161.360     258.071     135.910
  H     -156.108     264.679     137.940
  H     -160.604     258.824     134.534
  H     -157.348     265.926     137.682
  P     -154.825     263.202     140.682
  C     -153.990     265.635     141.020
  O     -154.058     264.320     141.534
  O     -154.601     263.654     139.162
  O     -154.343     261.805     140.905
  H     -153.949     263.067     138.738
  H     -153.901     266.334     141.855
  H     -154.881     265.888     140.437
  H     -153.104     265.729     140.386
  H     -152.999     267.892     136.555
  H     -154.353     268.995     136.563
  H     -154.590     267.326     136.105

 3  4  5  6  7  8  9  10  11  12  13  24  27  28  29  30  32 0
 6-311+G(2d,p)
 ****
 34  35 0
 6-311+G(2d,p)
 ****
 1  2  14  15  16  17  18  19  20  21  22  23  25  26 0
 3-21G
 ****
 31  33  36  37  38  39  40  41  42  43  44  45  46 0
 3-21G
 ****


