%nproc=1
%NoSave
%Mem=1900MB
#P OB98/GEN NMR

erre ene a

0 1
  C      821.322    -345.387    -281.539
  O      821.047    -345.251    -280.157
  H      820.447    -345.069    -282.106
  H      821.542    -346.430    -281.785
  H      822.171    -344.756    -281.824
  P      822.189    -345.659    -279.114
  C      820.664    -347.394    -277.951
  O      821.866    -347.167    -278.673
  C      820.638    -348.809    -277.390
  O      820.432    -349.761    -278.459
  C      821.922    -349.216    -276.681
  O      821.943    -348.708    -275.362
  C      821.799    -350.731    -276.739
  O      820.859    -351.180    -275.747
  C      821.230    -350.939    -278.156
  N      823.433    -354.209    -281.343
  C      822.477    -354.425    -280.371
  N      822.084    -355.713    -280.188
  N      821.967    -353.478    -279.628
  C      822.508    -352.265    -279.867
  C      823.470    -351.930    -280.792
  C      823.982    -352.977    -281.645
  O      824.823    -352.819    -282.536
  N      823.817    -350.604    -280.697
  C      823.034    -350.133    -279.743
  N      822.232    -351.110    -279.203
  O      822.395    -344.731    -277.956
  O      823.504    -345.808    -280.014
  H      820.839    -352.151    -275.804
  H      824.009    -344.976    -280.040
  H      823.801    -354.990    -281.872
  H      823.009    -349.101    -279.413
  H      820.561    -351.812    -278.209
  H      822.745    -351.246    -276.552
  H      822.632    -356.488    -280.529
  H      822.816    -348.919    -277.252
  H      821.416    -355.898    -279.454
  H      819.774    -348.890    -276.720
  H      819.830    -347.237    -278.638
  H      820.574    -346.671    -277.126
  P      823.288    -348.750    -274.470
  C      822.237    -350.212    -272.603
  O      823.192    -350.130    -273.660
  O      823.518    -347.552    -273.627
  O      824.452    -349.048    -275.526
  H      824.837    -348.229    -275.923
  H      822.284    -351.182    -272.155
  H      821.255    -350.047    -272.996
  H      822.456    -349.468    -271.866

 6  7  8  9  10  11  12  13  14  15  26  29  33  34 0
 6-311+G(2d,p)
 ****
 36  38  39  40  41 0
 6-311+G(2d,p)
 ****
 1  2  3  4  5  16  17  18  19  20  21  22  23  24  25 0
 3-21G
 ****
 27  28  30  31  32  35  37  42  43  44  45  46  47 0
 3-21G
 ****
 48  49 0
 3-21G
 ****


