%nproc=1
%NoSave
%Mem=1900MB
#P OB98/GEN NMR

erre ene a

0 1
  C     -206.968    -121.493     -24.621
  O     -207.700    -120.283     -24.679
  P     -207.204    -119.046     -23.786
  C     -205.427    -118.342     -25.593
  O     -205.705    -118.715     -24.258
  C     -205.286    -116.821     -25.702
  O     -204.083    -116.408     -24.992
  C     -205.175    -116.292     -27.142
  O     -205.845    -115.025     -27.180
  C     -203.676    -116.115     -27.321
  O     -203.356    -115.196     -28.358
  C     -203.278    -115.646     -25.917
  N     -201.854    -115.832     -25.628
  C     -200.935    -115.148     -26.420
  O     -201.248    -114.421     -27.358
  N     -199.613    -115.359     -26.111
  C     -199.134    -116.211     -25.161
  O     -197.940    -116.373     -24.939
  C     -200.149    -116.940     -24.387
  C     -201.438    -116.716     -24.647
  O     -207.022    -119.746     -22.362
  O     -208.132    -117.881     -23.806
  H     -206.697    -120.661     -22.425
  H     -202.386    -115.156     -28.433
  H     -198.931    -114.845     -26.648
  H     -199.805    -117.637     -23.633
  H     -202.206    -117.240     -24.090
  H     -203.543    -114.590     -25.779
  H     -203.225    -117.083     -27.566
  H     -205.625    -116.972     -27.870
  H     -206.137    -116.356     -25.188
  H     -206.249    -118.668     -26.240
  H     -204.515    -118.844     -25.931
  P     -206.774    -114.691     -28.452
  C     -209.051    -115.274     -27.304
  O     -208.109    -115.564     -28.306
  O     -205.963    -115.467     -29.598
  O     -206.943    -113.239     -28.747
  H     -205.728    -116.374     -29.352
  H     -210.009    -115.731     -27.571
  H     -209.202    -114.197     -27.191
  H     -208.716    -115.695     -26.350
  H     -207.421    -122.215     -25.268
  H     -206.969    -121.863     -23.617
  H     -205.961    -121.316     -24.935

 3  4  5  6  7  8  9  10  11  12  13  24  28  29  30  31  32 0
 6-311+G(2d,p)
 ****
 33  34 0
 6-311+G(2d,p)
 ****
 1  2  14  15  16  17  18  19  20  21  22  23  25  26  27 0
 3-21G
 ****
 35  36  37  38  39  40  41  42  43  44  45 0
 3-21G
 ****


