%nproc=1
%NoSave
%Mem=1900MB
#P OB98/GEN NMR

erre ene a

0 1
  C       91.576    -379.782    -461.758
  O       91.971    -378.456    -461.474
  H       91.040    -379.794    -462.709
  H       90.911    -380.154    -460.973
  H       92.452    -380.431    -461.838
  P       92.797    -378.226    -460.119
  C       92.534    -379.467    -457.850
  O       91.889    -378.805    -458.931
  C       91.525    -379.746    -456.742
  O       90.425    -380.524    -457.268
  C       92.086    -380.566    -455.587
  O       92.863    -379.787    -454.700
  C       90.809    -381.104    -454.962
  O       90.219    -380.147    -454.070
  C       89.907    -381.325    -456.179
  N       87.570    -385.778    -455.315
  C       87.350    -384.536    -454.832
  N       88.012    -383.398    -455.123
  C       88.970    -383.627    -456.035
  C       89.307    -384.836    -456.622
  C       88.554    -385.955    -456.227
  N       88.791    -387.225    -456.702
  N       90.373    -384.679    -457.485
  C       90.671    -383.397    -457.426
  N       89.850    -382.720    -456.568
  O       92.721    -376.638    -459.915
  O       94.205    -378.715    -460.146
  H       90.075    -379.338    -454.597
  H       93.556    -376.230    -460.221
  H       86.546    -384.450    -454.106
  H       91.470    -382.916    -457.980
  H       88.876    -380.995    -455.998
  H       91.009    -382.008    -454.390
  H       92.671    -381.410    -455.974
  H       91.122    -378.788    -456.382
  H       93.332    -378.827    -457.457
  H       92.973    -380.403    -458.215
  H       88.255    -387.990    -456.323
  H       89.594    -387.384    -457.295
  P       94.054    -380.518    -453.910
  C       94.000    -382.681    -452.458
  O       93.379    -381.446    -452.795
  O       94.738    -379.341    -453.069
  O       95.037    -381.219    -454.784
  H       95.702    -379.488    -453.016
  H       93.425    -383.175    -451.702
  H       94.988    -382.495    -452.091
  H       94.054    -383.302    -453.328

 6  7  8  9  10  11  12  13  14  15  25  28  32  33  34  35 0
 6-311+G(2d,p)
 ****
 36  37  40 0
 6-311+G(2d,p)
 ****
 1  2  3  4  5  16  17  18  19  20  21  22  23  24 0
 3-21G
 ****
 26  27  29  30  31  38  39 41  42  43  44  45  46  47  48 0
 3-21G
 ****


