%nproc=1
%NoSave
%Mem=1900MB
#P OB98/GEN NMR

erre ene a

0 1
  C     -133.411    -287.315     169.582
  O     -134.632    -288.044     169.741
  P     -134.763    -288.924     171.078
  C     -135.940    -291.212     170.723
  O     -136.091    -289.822     170.955
  C     -137.229    -291.815     170.167
  O     -138.345    -291.671     171.087
  C     -137.688    -291.182     168.865
  O     -136.943    -291.709     167.784
  C     -139.163    -291.571     168.824
  O     -139.335    -292.896     168.285
  C     -139.554    -291.524     170.303
  N     -143.622    -289.746     172.770
  C     -143.297    -291.044     172.419
  N     -144.158    -292.003     172.798
  N     -142.215    -291.365     171.758
  C     -141.432    -290.304     171.438
  C     -141.635    -288.975     171.747
  C     -142.847    -288.631     172.481
  O     -143.171    -287.503     172.835
  N     -140.600    -288.197     171.317
  C     -139.837    -289.029     170.632
  N     -140.264    -290.335     170.732
  O     -135.128    -287.843     172.197
  O     -133.517    -289.667     171.420
  H     -140.272    -293.140     168.350
  H     -134.372    -287.723     172.809
  H     -144.475    -289.557     173.260
  H     -138.955    -288.748     170.076
  H     -140.205    -292.374     170.567
  H     -139.738    -290.891     168.186
  H     -145.019    -291.828     173.318
  H     -137.580    -290.088     168.917
  H     -143.932    -292.966     172.564
  H     -137.062    -292.893     170.028
  H     -135.670    -291.722     171.655
  H     -135.106    -291.372     170.027
  P     -136.226    -290.685     166.782
  C     -136.053    -291.808     164.443
  O     -135.429    -291.548     165.686
  O     -135.076    -290.030     167.673
  O     -137.143    -289.633     166.226
  H     -135.060    -289.069     167.537
  H     -135.289    -291.915     163.677
  H     -136.749    -291.010     164.151
  H     -136.616    -292.757     164.507
  H     -133.438    -286.770     168.662
  H     -132.587    -287.998     169.568
  H     -133.295    -286.632     170.398

 3  4  5  6  7  8  9  10  11  12  23  26  30  31 0
 6-311+G(2d,p)
 ****
 33  35  36  37  38 0
 6-311+G(2d,p)
 ****
 1  2  13  14  15  16  17  18  19  20  21  22  24  25 0
 3-21G
 ****
 27  28  29  32  34  39  40  41  42  43  44  45  46  47  48  49 0
 3-21G
 ****


