%nproc=1
%NoSave
%Mem=1900MB
#P OB98/GEN NMR

erre ene a

0 1
  C      194.212    -354.776     450.712
  O      195.550    -354.698     450.208
  P      196.503    -353.593     450.864
  C      199.074    -353.190     450.933
  O      197.973    -353.745     450.228
  C      200.374    -353.493     450.193
  O      200.889    -354.803     450.529
  C      200.224    -353.496     448.672
  O      200.120    -352.180     448.169
  C      201.490    -354.237     448.266
  O      202.626    -353.354     448.293
  C      201.626    -355.294     449.379
  N      202.911    -360.145     448.351
  C      203.642    -359.061     448.697
  N      203.231    -357.805     448.953
  C      201.896    -357.713     448.832
  C      201.012    -358.723     448.487
  C      201.565    -359.986     448.233
  N      200.817    -361.079     447.872
  N      199.715    -358.248     448.463
  C      199.821    -356.965     448.762
  N      201.115    -356.593     449.003
  O      196.687    -354.107     452.369
  O      195.940    -352.203     450.815
  H      203.425    -353.902     448.127
  H      196.188    -353.529     452.979
  H      204.717    -359.233     448.781
  H      198.991    -356.268     448.810
  H      202.667    -355.425     449.699
  H      201.436    -354.665     447.256
  H      199.334    -354.082     448.384
  H      201.120    -352.743     450.490
  H      199.123    -353.603     451.946
  H      201.301    -361.934     447.631
  H      199.825    -360.960     447.697
  H      198.910    -352.112     451.034
  P      198.654    -351.539     448.044
  C      198.025    -349.199     447.202
  O      198.847    -350.332     447.006
  O      198.507    -350.779     449.446
  O      197.570    -352.511     447.720
  H      199.316    -350.272     449.661
  H      198.283    -348.443     446.451
  H      198.190    -348.778     448.202
  H      196.973    -349.470     447.080
  H      193.681    -355.548     450.195
  H      193.718    -353.839     450.559
  H      194.237    -354.999     451.758

 3  4  5  6  7  8  9  10  11  12  22  25  29  30  31  32 0
 6-311+G(2d,p)
 ****
 33  36  37 0
 6-311+G(2d,p)
 ****
 1  2  13  14  15  16  17  18  19  20  21  23  24  26 0
 3-21G
 ****
 27  28  34  35  38  39  40  41  42  43  44  45  46  47  48 0
 3-21G
 ****


