%nproc=1
%NoSave
%Mem=1900MB
#P OB98/GEN NMR

erre ene a

0 1
  C     -285.598     165.819    -383.889
  O     -285.030     164.536    -384.145
  P     -285.967     163.391    -384.757
  C     -285.548     161.895    -386.821
  O     -285.048     162.354    -385.569
  C     -284.401     161.396    -387.712
  O     -283.471     162.492    -387.944
  C     -283.559     160.261    -387.110
  O     -283.973     158.917    -387.351
  C     -282.238     160.445    -387.852
  O     -282.303     159.801    -389.140
  C     -282.134     161.956    -388.037
  N     -278.779     165.745    -387.256
  C     -279.476     165.365    -388.350
  N     -280.350     164.342    -388.472
  C     -280.488     163.688    -387.308
  C     -279.844     163.962    -386.113
  C     -278.950     165.045    -386.107
  N     -278.231     165.421    -384.995
  N     -280.230     163.065    -385.134
  C     -281.079     162.254    -385.740
  N     -281.276     162.597    -387.051
  O     -287.190     163.857    -385.469
  O     -286.360     162.536    -383.455
  H     -283.069     160.184    -389.601
  H     -287.292     162.240    -383.540
  H     -279.310     165.958    -389.240
  H     -281.571     161.411    -385.273
  H     -281.742     162.228    -389.021
  H     -281.395     159.989    -387.319
  H     -283.408     160.415    -386.035
  H     -284.806     161.083    -388.687
  H     -286.078     162.715    -387.323
  H     -277.579     166.181    -385.089
  H     -278.301     164.875    -384.148
  H     -286.288     161.124    -386.616
  P     -284.849     158.109    -386.270
  C     -286.257     155.987    -386.856
  O     -284.999     156.632    -386.867
  O     -286.130     158.760    -385.882
  O     -283.811     157.907    -385.069
  H     -283.073     157.308    -385.269
  H     -286.205     155.097    -387.489
  H     -287.040     156.647    -387.245
  H     -286.503     155.674    -385.836
  H     -284.848     166.467    -383.485
  H     -286.400     165.720    -383.188
  H     -285.971     166.232    -384.803

 3  4  5  6  7  8  9  10  11  12  22  25  29  30  31  32 0
 6-311+G(2d,p)
 ****
 33  36  37 0
 6-311+G(2d,p)
 ****
 1  2  13  14  15  16  17  18  19  20  21  23  24  26 0
 3-21G
 ****
 27  28  34  35  38  39  40  41  42  43  44  45  46  47  48 0
 3-21G
 ****


