%nproc=1
%NoSave
%Mem=1900MB
#P OB98/GEN NMR

erre ene a

0 1
  C      -81.321       4.737     -83.417
  O      -80.402       3.851     -82.811
  H      -80.821       5.668     -83.692
  H      -81.717       4.270     -84.322
  H      -82.150       4.947     -82.736
  P      -79.672       4.366     -81.479
  C      -77.119       4.472     -81.921
  O      -78.212       3.692     -81.453
  C      -76.319       3.679     -82.952
  O      -77.139       3.509     -84.135
  C      -74.995       4.338     -83.379
  O      -73.897       3.457     -83.120
  C      -75.128       4.512     -84.884
  O      -73.923       4.222     -85.591
  C      -76.246       3.546     -85.255
  N      -76.935       2.556     -90.206
  C      -76.513       1.773     -89.189
  N      -76.453       2.066     -87.874
  C      -76.914       3.308     -87.642
  C      -77.398       4.213     -88.572
  C      -77.381       3.801     -89.916
  N      -77.758       4.619     -90.958
  N      -77.773       5.393     -87.957
  C      -77.479       5.218     -86.685
  N      -76.941       3.980     -86.450
  O      -80.458       3.602     -80.311
  O      -79.689       5.844     -81.279
  H      -73.282       4.916     -85.348
  H      -80.700       4.236     -79.609
  H      -76.171       0.781     -89.469
  H      -77.591       5.961     -85.905
  H      -75.873       2.529     -85.425
  H      -75.413       5.550     -85.097
  H      -74.822       5.301     -82.885
  H      -76.128       2.678     -82.543
  H      -76.464       4.725     -81.080
  H      -77.603       4.284     -91.895
  H      -77.987       5.582     -90.758
  H      -77.504       5.400     -82.356
  P      -72.548       4.131     -82.557
  C      -70.735       3.231     -84.194
  O      -71.336       3.140     -82.908
  O      -72.705       3.974     -80.971
  O      -72.367       5.555     -82.965
  H      -72.203       4.676     -80.515
  H      -69.949       2.510     -84.272
  H      -70.333       4.213     -84.331
  H      -71.471       3.039     -84.946

 6  7  8  9  10  11  12  13  14  15  25  28  32  33  34  35 0
 6-311+G(2d,p)
 ****
 36  39  40 0
 6-311+G(2d,p)
 ****
 1  2  3  4  5  16  17  18  19  20  21  22  23  24 0
 3-21G
 ****
 26  27  29  30  31  37  38  41  42  43  44  45  46  47  48 0
 3-21G
 ****


