%nproc=1
%NoSave
%Mem=1900MB
#P OB98/GEN NMR

erre ene a

0 1
  C     -746.445    -289.714    -895.640
  O     -745.860    -289.905    -896.900
  P     -744.280    -290.132    -897.050
  C     -742.096    -288.926    -896.400
  O     -743.535    -288.877    -896.400
  C     -741.536    -287.612    -896.940
  O     -741.737    -286.523    -895.980
  C     -740.039    -287.636    -897.190
  O     -739.706    -288.367    -898.350
  C     -739.734    -286.157    -897.320
  O     -740.060    -285.656    -898.620
  C     -740.685    -285.566    -896.260
  N     -740.014    -285.181    -895.010
  C     -739.191    -284.062    -895.050
  O     -739.021    -283.461    -896.130
  N     -738.601    -283.639    -893.890
  C     -738.706    -284.322    -892.810
  N     -738.152    -283.799    -891.700
  C     -739.431    -285.601    -892.760
  C     -740.056    -285.977    -893.880
  O     -743.801    -290.494    -898.410
  O     -743.986    -291.315    -896.000
  H     -743.428    -291.997    -896.450
  H     -739.306    -285.883    -899.200
  H     -739.413    -286.184    -891.840
  H     -740.639    -286.890    -893.920
  H     -741.204    -284.663    -896.660
  H     -738.690    -285.935    -897.130
  H     -739.531    -288.047    -896.310
  H     -742.076    -287.329    -897.890
  H     -737.682    -282.930    -891.780
  H     -741.802    -289.736    -897.050
  H     -738.418    -284.098    -890.760
  H     -741.747    -289.111    -895.390
  P     -738.275    -289.134    -898.340
  C     -735.815    -288.364    -897.960
  O     -737.183    -287.999    -897.990
  O     -737.995    -289.417    -899.890
  O     -738.204    -290.371    -897.530
  H     -737.538    -290.257    -900.000
  H     -735.202    -287.462    -898.040
  H     -735.574    -289.045    -898.800
  H     -735.590    -288.870    -896.980
  H     -747.501    -289.581    -895.753
  H     -746.024    -288.845    -895.179
  H     -746.257    -290.570    -895.026

 3  4  5  6  7  8  9  10  11  12  13  24  27  28  29  30  32 0
 6-311+G(2d,p)
 ****
 34  35 0
 6-311+G(2d,p)
 ****
 1  2  14  15  16  17  18  19  20  21  22  23  25  26 0
 3-21G
 ****
 31  33  36  37  38  39  40  41  42  43  44  45  46 0
 3-21G
 ****


