%nproc=1
%NoSave
%Mem=1900MB
#P OB98/GEN NMR

erre ene a

0 1
  C      115.230     391.927    -220.870
  O      114.321     391.589    -221.896
  P      112.749     391.869    -221.745
  C      112.775     393.704    -223.545
  O      112.533     393.401    -222.180
  C      111.683     394.602    -224.119
  O      110.405     393.903    -224.080
  C      111.495     395.937    -223.388
  O      111.114     396.894    -224.380
  C      110.332     395.639    -222.456
  O      109.692     396.822    -221.989
  C      109.478     394.733    -223.350
  N      108.527     393.944    -222.572
  C      107.223     394.438    -222.489
  O      106.942     395.532    -222.985
  N      106.284     393.719    -221.792
  C      106.641     392.646    -221.152
  N      105.669     391.970    -220.486
  C      108.036     392.161    -221.111
  C      108.916     392.842    -221.847
  O      112.163     391.503    -220.425
  O      112.106     391.069    -222.975
  H      109.325     397.301    -222.759
  H      112.072     390.099    -222.774
  H      108.299     391.298    -220.520
  H      109.956     392.561    -221.883
  H      108.922     395.324    -224.085
  H      110.693     395.091    -221.581
  H      112.387     396.272    -222.848
  H      111.913     394.793    -225.175
  H      104.729     392.331    -220.555
  H      112.792     392.768    -224.107
  H      105.827     391.088    -220.026
  H      113.763     394.180    -223.654
  P      111.425     398.460    -224.191
  C      113.748     398.571    -225.244
  O      113.005     398.606    -224.041
  O      110.621     399.137    -223.126
  O      111.134     399.094    -225.638
  H      111.048     400.063    -225.553
  H      114.756     398.957    -225.052
  H      113.278     399.183    -226.016
  H      113.830     397.539    -225.596
  H      116.222     391.659    -221.169
  H      114.972     391.398    -219.976
  H      115.185     392.980    -220.687

 3  4  5  6  7  8  9  10  11  12  13  23  27  28  29  30  32 0
 6-311+G(2d,p)
 ****
 34  35 0
 6-311+G(2d,p)
 ****
 1  2  14  15  16  17  18  19  20  21  22  24  25  26 0
 3-21G
 ****
 31  33  36  37  38  39  40  41  42  43  44  45  46 0
 3-21G
 ****


