%nproc=1
%NoSave
%Mem=1900MB
#P OB98/GEN NMR

erre ene a

0 1
  C     -307.487    -282.175     419.428
  O     -307.635    -280.917     420.071
  P     -306.824    -280.582     421.416
  C     -304.529    -279.856     420.512
  O     -305.276    -280.903     421.114
  C     -303.806    -279.032     421.582
  O     -302.950    -279.917     422.346
  C     -302.917    -277.931     420.993
  O     -302.956    -276.801     421.866
  C     -301.505    -278.516     421.042
  O     -300.516    -277.475     421.108
  C     -301.596    -279.413     422.284
  N     -296.672    -280.879     422.236
  C     -297.241    -279.656     422.321
  N     -298.556    -279.342     422.307
  C     -299.315    -280.447     422.233
  C     -298.872    -281.759     422.139
  C     -297.477    -281.959     422.133
  N     -296.891    -283.206     422.055
  N     -299.934    -282.637     422.046
  C     -301.005    -281.868     422.109
  N     -300.679    -280.539     422.232
  O     -307.363    -281.221     422.651
  O     -306.852    -278.987     421.513
  H     -300.676    -276.885     420.342
  H     -306.957    -278.712     422.443
  H     -296.560    -278.820     422.422
  H     -302.032    -282.213     422.062
  H     -301.404    -278.845     423.203
  H     -301.326    -279.104     420.137
  H     -303.202    -277.642     419.978
  H     -304.542    -278.606     422.259
  H     -305.219    -279.202     419.959
  H     -295.889    -283.268     422.182
  H     -297.489    -284.023     422.152
  H     -303.809    -280.282     419.795
  P     -302.644    -275.368     421.174
  C     -305.089    -274.521     421.510
  O     -304.065    -274.875     420.607
  O     -301.509    -275.452     420.197
  O     -302.363    -274.456     422.461
  H     -302.812    -274.821     423.255
  H     -305.992    -274.247     420.931
  H     -304.792    -273.655     422.104
  H     -305.337    -275.360     422.162
  H     -308.105    -282.204     418.555
  H     -307.780    -282.955     420.099
  H     -306.464    -282.313     419.146

 3  4  5  6  7  8  9  10  11  12  22  25  29  30  31  32 0
 6-311+G(2d,p)
 ****
 33  36  37 0
 6-311+G(2d,p)
 ****
 1  2  13  14  15  16  17  18  19  20  21  23  24  26 0
 3-21G
 ****
 27  28  34  35  38  39  40  41  42  43  44  45  46  47  48 0
 3-21G
 ****


