%nproc=1
%NoSave
%Mem=1900MB
#P OB98/GEN NMR

erre ene a

0 1
  C     -305.639     634.306    -397.157
  O     -304.314     634.719    -397.463
  P     -303.435     633.768    -398.413
  C     -302.354     632.442    -396.470
  O     -303.215     632.394    -397.603
  C     -301.164     631.500    -396.660
  O     -300.427     631.419    -395.403
  C     -301.550     630.070    -397.063
  O     -300.663     629.612    -398.096
  C     -301.265     629.253    -395.813
  O     -300.999     627.883    -396.108
  C     -300.070     630.025    -395.246
  N     -297.076     627.320    -392.183
  C     -296.962     627.578    -393.537
  N     -295.930     626.976    -394.166
  N     -297.780     628.347    -394.209
  C     -298.747     628.907    -393.441
  C     -298.969     628.733    -392.090
  C     -298.083     627.830    -391.367
  O     -298.193     627.499    -390.190
  N     -300.038     629.480    -391.659
  C     -300.467     630.090    -392.751
  N     -299.753     629.740    -393.859
  O     -301.993     634.460    -398.382
  O     -303.935     633.623    -399.811
  H     -301.045     627.400    -395.256
  H     -301.706     634.667    -399.296
  H     -296.439     626.702    -391.720
  H     -301.319     630.768    -392.780
  H     -299.174     629.838    -395.841
  H     -302.136     629.299    -395.142
  H     -295.242     626.411    -393.711
  H     -302.590     629.963    -397.408
  H     -295.806     627.174    -395.162
  H     -300.485     631.940    -397.397
  H     -302.905     632.141    -395.575
  H     -302.001     633.471    -396.341
  P     -301.339     628.847    -399.339
  C     -300.762     626.547    -398.248
  O     -301.763     627.399    -398.790
  O     -300.107     628.552    -400.314
  O     -302.420     629.639    -400.011
  H     -300.413     628.451    -401.231
  H     -299.804     627.069    -398.122
  H     -300.622     625.701    -398.918
  H     -301.104     626.183    -397.272
  H     -306.101     635.031    -396.520
  H     -305.611     633.360    -396.658
  H     -306.202     634.216    -398.062

 3  4  5  6  7  8  9  10  11  12  23  26  30  31  33  0
 6-311+G(2d,p)
 ****
 35  36  37  38 0
 6-311+G(2d,p)
 ****
 1  2  13  14  15  16  17  18  19  20  21  22  24  25  27  28  29 0
 3-21G
 ****
 32  34  39  40  41  42  43  44  45  46  47  48  49 0
 3-21G
 ****


