%nproc=1
%NoSave
%Mem=1900MB
#P OB98/GEN NMR

erre ene a

0 1
  C       15.158    -225.631    -116.304
  O       14.810    -226.912    -116.788
  H       14.791    -224.859    -116.984
  H       14.696    -225.486    -115.323
  H       16.244    -225.549    -116.197
  P       15.385    -227.306    -118.234
  C       13.410    -225.851    -119.061
  O       14.752    -226.262    -119.282
  C       12.654    -225.806    -120.386
  O       13.220    -224.741    -121.195
  C       12.728    -227.110    -121.197
  O       11.419    -227.523    -121.608
  C       13.528    -226.738    -122.431
  O       13.105    -227.433    -123.599
  C       13.294    -225.235    -122.539
  N       14.936    -224.014    -127.211
  C       13.704    -224.331    -126.749
  N       13.316    -224.550    -125.477
  C       14.346    -224.383    -124.629
  C       15.650    -224.038    -124.949
  C       15.939    -223.872    -126.312
  N       17.204    -223.606    -126.786
  N       16.430    -223.967    -123.808
  C       15.621    -224.305    -122.825
  N       14.355    -224.580    -123.276
  O       14.630    -228.680    -118.566
  O       16.866    -227.464    -118.291
  H       12.954    -228.361    -123.344
  H       15.296    -229.386    -118.671
  H       12.930    -224.426    -127.506
  H       15.905    -224.411    -121.785
  H       12.341    -225.006    -123.033
  H       14.587    -226.965    -122.254
  H       13.205    -227.924    -120.643
  H       11.609    -225.538    -120.186
  H       13.402    -224.850    -118.611
  H       17.346    -223.615    -127.784
  H       17.975    -223.607    -126.129
  H       12.931    -226.552    -118.370
  P       10.752    -228.718    -120.763
  C       11.409    -230.633    -122.391
  O       11.557    -230.070    -121.093
  O        9.334    -228.924    -121.477
  O       10.590    -228.411    -119.310
  H        8.616    -228.831    -120.824
  H       11.999    -231.523    -122.463
  H       11.737    -229.927    -123.125
  H       10.380    -230.873    -122.561

 6  7  8  9  10  11  12  13  14  15  25  28  32  33  34  35 0
 6-311+G(2d,p)
 ****
 36  39  40 0
 6-311+G(2d,p)
 ****
 1  2  3  4  5  16  17  18  19  20  21  22  23  24 0
 3-21G
 ****
 26  27  29  30  31  37  38  41  42  43  44  45  46  47  48 0
 3-21G
 ****


