%nproc=1
%NoSave
%Mem=1900MB
#P OB98/GEN NMR

erre ene a

0 1
  C      332.255     227.091     -38.079
  O      331.546     227.111     -36.857
  H      332.031     226.155     -38.601
  H      333.329     227.127     -37.883
  H      331.964     227.928     -38.719
  P      331.467     228.476     -36.027
  C      333.822     228.864     -35.031
  O      332.935     229.131     -36.109
  C      335.199     229.461     -35.319
  O      335.693     228.887     -36.569
  C      335.176     230.995     -35.485
  O      336.407     231.528     -34.983
  C      335.129     231.139     -36.997
  O      335.547     232.415     -37.422
  C      336.043     229.992     -37.428
  N      335.882     229.678     -38.840
  C      336.917     230.049     -39.692
  O      337.936     230.626     -39.316
  N      336.717     229.800     -41.023
  C      335.563     229.331     -41.584
  O      335.413     229.203     -42.795
  C      334.479     229.004     -40.639
  C      334.691     229.184     -39.336
  O      330.910     228.372     -34.642
  O      330.610     229.461     -36.955
  H      336.483     232.553     -37.187
  H      330.230     230.184     -36.423
  H      337.468     230.056     -41.657
  H      333.549     228.642     -41.054
  H      333.908     228.972     -38.614
  H      337.102     230.239     -37.232
  H      334.112     230.982     -37.363
  H      334.332     231.471     -34.987
  H      335.894     229.164     -34.529
  H      333.903     227.776     -34.919
  H      333.410     229.287     -34.105
  P      336.501     232.220     -33.530
  C      336.814     234.753     -33.834
  O      335.887     233.709     -33.576
  O      337.857     232.140     -32.909
  O      335.445     231.410     -32.644
  H      335.850     231.190     -31.781
  H      336.301     235.692     -33.842
  H      337.277     234.592     -34.785
  H      337.563     234.762     -33.070

 6  7  8  9  10  11  12  13  14  15  16  26  31  32  33  34  35 0
 6-311+G(2d,p)
 ****
 36  37 0
 6-311+G(2d,p)
 ****
 1  2  3  4  5  17  18  19  20  21  22  23  24  25 0
 3-21G
 ****
 27  28  29  30  38  39  40  41  42  43  44  45 0
 3-21G
 ****


