%nproc=1
%NoSave
%Mem=1900MB
#P OB98/GEN NMR

erre ene a

0 1
  C        2.156      99.086     151.705
  O        3.126      98.295     152.370
  P        3.916      98.943     153.604
  C        6.060      97.744     152.765
  O        5.228      98.058     153.871
  C        6.834      96.448     153.018
  O        7.884      96.690     153.992
  C        5.965      95.307     153.560
  O        6.455      94.056     153.058
  C        6.236      95.336     155.051
  O        5.963      94.072     155.656
  C        7.708      95.744     155.066
  N       10.098      94.861     159.432
  C       10.114      94.131     158.262
  N       10.790      92.960     158.290
  N        9.525      94.514     157.160
  C        8.880      95.700     157.280
  C        8.807      96.523     158.383
  C        9.452      96.080     159.599
  O        9.453      96.667     160.677
  N        8.094      97.663     158.111
  C        7.696      97.514     156.862
  N        8.120      96.325     156.327
  O        2.971      98.602     154.851
  O        4.144     100.414     153.495
  H        6.478      93.406     155.164
  H        2.494      99.404     155.136
  H       10.558      94.518     160.259
  H        7.088      98.220     156.311
  H        8.365      94.888     154.861
  H        5.603      96.091     155.531
  H       11.207      92.578     159.126
  H        4.898      95.400     153.326
  H       10.781      92.386     157.460
  H        7.328      96.147     152.085
  H        6.769      98.558     152.608
  H        5.448      97.646     151.862
  P        5.365      93.098     152.369
  C        4.771      91.448     154.295
  O        5.500      91.683     153.104
  O        5.979      92.832     150.915
  O        3.992      93.678     152.311
  H        5.267      92.617     150.283
  H        4.060      90.637     154.122
  H        4.224      92.336     154.627
  H        5.467      91.150     155.085
  H        1.718      98.520     150.910
  H        2.623      99.961     151.304
  H        1.394      99.374     152.399

 3  4  5  6  7  8  9  10  11  12  23  26  30  31 0
 6-311+G(2d,p)
 ****
 33  35  36  37  38 0
 6-311+G(2d,p)
 ****
 1  2  13  14  15  16  17  18  19  20  21  22  24  25 0
 3-21G
 ****
 27  28  29  32  34  39  40  41  42  43  44  45  46  47  48  49 0
 3-21G
 ****


