%nproc=1
%NoSave
%Mem=1900MB
#P OB98/GEN NMR

erre ene a

0 1
  C      -53.025    -552.200     -63.631
  O      -53.367    -552.325     -65.001
  P      -54.476    -553.421     -65.379
  C      -55.018    -555.776     -64.392
  O      -54.049    -554.769     -64.632
  C      -54.677    -556.521     -63.097
  O      -54.920    -555.670     -61.957
  C      -55.502    -557.783     -62.871
  O      -54.958    -558.861     -63.606
  C      -55.392    -557.948     -61.358
  O      -54.138    -558.566     -60.999
  C      -55.447    -556.489     -60.872
  N      -58.414    -555.082     -57.028
  C      -57.158    -555.643     -57.019
  N      -56.586    -555.820     -55.803
  N      -56.508    -556.009     -58.099
  C      -57.205    -555.784     -59.239
  C      -58.459    -555.249     -59.383
  C      -59.144    -554.805     -58.182
  O      -60.216    -554.205     -58.150
  N      -58.849    -555.201     -60.697
  C      -57.804    -555.676     -61.349
  N      -56.777    -556.035     -60.512
  O      -54.183    -553.715     -66.924
  O      -55.892    -552.999     -65.134
  H      -54.064    -559.417     -61.471
  H      -54.795    -553.214     -67.492
  H      -58.858    -554.806     -56.173
  H      -57.740    -555.773     -62.420
  H      -54.804    -556.327     -60.003
  H      -56.184    -558.583     -60.956
  H      -57.033    -555.594     -54.928
  H      -56.549    -557.611     -63.148
  H      -55.666    -556.244     -55.780
  H      -53.610    -556.754     -63.119
  H      -55.015    -556.481     -65.223
  H      -56.012    -555.311     -64.324
  P      -55.837    -560.201     -63.712
  C      -56.634    -562.006     -62.027
  O      -55.739    -560.945     -62.298
  O      -54.978    -561.129     -64.696
  O      -57.218    -559.995     -64.232
  H      -55.577    -561.653     -65.256
  H      -56.141    -562.710     -61.346
  H      -56.925    -562.543     -62.942
  H      -57.530    -561.616     -61.544
  H      -52.280    -551.440     -63.517
  H      -52.641    -553.132     -63.273
  H      -53.896    -551.933     -63.069

 3  4  5  6  7  8  9  10  11  12  23  26  30  31 0
 6-311+G(2d,p)
 ****
 33  35  36  37  38 0
 6-311+G(2d,p)
 ****
 1  2  13  14  15  16  17  18  19  20  21  22  24  25 0
 3-21G
 ****
 27  28  29  32  34  39  40  41  42  43  44  45  46  47  48  49 0
 3-21G
 ****


