%nproc=1
%NoSave
%Mem=1900MB
#P OB98/GEN NMR

erre ene a

0 1
  C      -91.532    -414.812     -76.815
  O      -91.121    -415.571     -75.670
  P      -91.566    -417.117     -75.649
  C      -93.425    -417.103     -73.845
  O      -93.117    -417.165     -75.224
  C      -94.928    -417.348     -73.596
  O      -95.244    -418.759     -73.765
  C      -95.398    -416.929     -72.196
  O      -96.745    -416.431     -72.334
  C      -95.409    -418.258     -71.451
  O      -96.129    -418.230     -70.236
  C      -95.928    -419.172     -72.545
  N      -97.101    -423.033     -69.421
  C      -97.454    -421.730     -69.406
  N      -97.093    -420.752     -70.276
  C      -96.289    -421.259     -71.241
  C      -95.846    -422.561     -71.374
  C      -96.279    -423.482     -70.410
  N      -95.913    -424.810     -70.394
  N      -95.007    -422.687     -72.486
  C      -94.904    -421.447     -72.940
  N      -95.714    -420.576     -72.283
  O      -90.798    -417.710     -74.386
  O      -91.237    -417.839     -76.910
  H      -96.390    -419.130     -69.981
  H      -90.001    -418.183     -74.659
  H      -98.105    -421.426     -68.601
  H      -94.261    -421.137     -73.759
  H      -97.015    -419.030     -72.716
  H      -94.362    -418.532     -71.189
  H      -94.774    -416.161     -71.724
  H      -95.487    -416.789     -74.355
  H      -93.151    -416.120     -73.442
  H      -96.270    -425.387     -69.643
  H      -95.297    -425.173     -71.086
  H      -92.817    -417.840     -73.305
  P      -96.982    -414.845     -72.267
  C      -97.015    -414.670     -69.713
  O      -96.290    -414.382     -70.894
  O      -98.535    -414.808     -71.864
  O      -96.651    -414.076     -73.500
  H      -98.721    -415.389     -71.105
  H      -96.383    -414.380     -68.854
  H      -97.221    -415.746     -69.643
  H      -97.939    -414.094     -69.684
  H      -91.182    -413.805     -76.720
  H      -92.600    -414.814     -76.879
  H      -91.121    -415.251     -77.700

 3  4  5  6  7  8  9  10  11  12  22  25  29  30  31  32 0
 6-311+G(2d,p)
 ****
 33  36  37 0
 6-311+G(2d,p)
 ****
 1  2  13  14  15  16  17  18  19  20  21  23  24  26 0
 3-21G
 ****
 27  28  34  35  38  39  40  41  42  43  44  45  46  47  48 0
 3-21G
 ****


