%nproc=1
%NoSave
%Mem=1900MB
#P OB98/GEN NMR

erre ene a

0 1
  C       18.075    -222.159    -384.818
  O       19.206    -222.983    -384.610
  H       17.375    -222.685    -385.473
  H       18.367    -221.222    -385.299
  H       17.575    -221.950    -383.869
  P       20.386    -222.429    -383.681
  C       20.778    -224.969    -383.440
  O       21.362    -223.674    -383.420
  C       21.666    -225.954    -382.690
  O       21.840    -225.535    -381.323
  C       21.110    -227.376    -382.640
  O       21.389    -228.060    -383.851
  C       21.876    -227.930    -381.450
  O       23.226    -228.242    -381.843
  C       21.865    -226.727    -380.491
  N       19.104    -229.337    -377.137
  C       20.170    -229.743    -377.915
  N       20.520    -231.043    -377.815
  N       20.817    -228.953    -378.731
  C       20.309    -227.701    -378.777
  C       19.249    -227.185    -378.067
  C       18.575    -228.054    -377.126
  O       17.637    -227.729    -376.404
  N       18.984    -225.889    -378.429
  C       19.907    -225.610    -379.328
  N       20.728    -226.682    -379.586
  O       19.967    -221.718    -382.429
  O       21.238    -221.487    -384.652
  H       23.640    -228.691    -381.083
  H       20.936    -220.562    -384.600
  H       18.634    -229.998    -376.541
  H       20.027    -224.652    -379.819
  H       22.770    -226.679    -379.873
  H       21.437    -228.840    -381.042
  H       19.891    -231.739    -377.434
  H       20.042    -227.386    -382.401
  H       21.266    -231.373    -378.414
  H       22.658    -225.938    -383.159
  H       20.674    -225.269    -384.488
  H       19.785    -224.946    -382.981
  P       20.486    -229.299    -384.329
  C       20.633    -228.197    -386.661
  O       20.724    -229.400    -385.910
  O       19.054    -229.227    -383.918
  O       21.251    -230.587    -383.781
  H       20.985    -230.846    -382.864
  H       20.812    -228.407    -387.695
  H       21.363    -227.500    -386.307
  H       19.655    -227.778    -386.547

 6  7  8  9  10  11  12  13  14  15  26  29  33  34 0
 6-311+G(2d,p)
 ****
 36  38  39  40  41 0
 6-311+G(2d,p)
 ****
 1  2  3  4  5  16  17  18  19  20  21  22  23  24  25 0
 3-21G
 ****
 27  28  30  31  32  35  37  42  43  44  45  46  47 0
 3-21G
 ****
 48  49 0
 3-21G
 ****


