%nproc=1
%NoSave
%Mem=1900MB
#P OB98/GEN NMR

erre ene a

0 1
  C       -1.382    -512.205     396.474
  O       -1.652    -511.880     395.127
  H       -2.280    -512.650     396.914
  H       -1.134    -511.301     397.031
  H       -0.563    -512.928     396.550
  P       -0.434    -511.474     394.165
  C        0.025    -509.133     395.153
  O        0.485    -510.471     395.014
  C        1.090    -508.273     395.838
  O        0.584    -506.909     395.938
  C        1.437    -508.749     397.266
  O        2.827    -508.489     397.508
  C        0.582    -507.824     398.108
  O        1.039    -507.747     399.435
  C        0.695    -506.519     397.320
  N       -0.335    -505.566     397.713
  C        0.022    -504.219     397.723
  O        1.148    -503.812     397.428
  N       -0.933    -503.345     398.152
  C       -2.149    -503.687     398.673
  O       -2.940    -502.864     399.122
  C       -2.458    -505.125     398.693
  C       -1.552    -505.984     398.214
  O       -0.810    -510.979     392.807
  O        0.475    -512.790     394.102
  H        1.967    -507.450     399.450
  H        1.043    -512.773     393.308
  H       -0.694    -502.365     398.153
  H       -3.406    -505.432     399.110
  H       -1.736    -507.054     398.228
  H        1.682    -506.058     397.460
  H       -0.453    -508.182     398.129
  H        1.220    -509.809     397.432
  H        1.984    -508.241     395.205
  H       -0.891    -509.150     395.760
  H       -0.212    -508.721     394.165
  P        3.921    -509.668     397.509
  C        4.040    -510.014     400.051
  O        3.730    -510.612     398.794
  O        5.327    -509.195     397.303
  O        3.482    -510.613     396.290
  H        4.271    -510.837     395.761
  H        3.879    -510.725     400.834
  H        3.409    -509.164     400.207
  H        5.064    -509.704     400.056

 6  7  8  9  10  11  12  13  14  15  16  26  31  32  33  34  35 0
 6-311+G(2d,p)
 ****
 36  37 0
 6-311+G(2d,p)
 ****
 1  2  3  4  5  17  18  19  20  21  22  23  24  25 0
 3-21G
 ****
 27  28  29  30  38  39  40  41  42  43  44  45 0
 3-21G
 ****


