%nproc=1
%NoSave
%Mem=1900MB
#P OB98/GEN NMR

erre ene a

0 1
  C     -178.721      88.469    -316.071
  O     -179.531      87.964    -315.016
  P     -179.345      88.615    -313.559
  C     -178.248      86.390    -312.786
  O     -178.138      87.806    -312.875
  C     -178.169      85.939    -311.330
  O     -177.105      86.637    -310.649
  C     -179.424      86.206    -310.513
  O     -180.415      85.208    -310.712
  C     -178.870      86.129    -309.100
  O     -178.720      84.750    -308.709
  C     -177.497      86.791    -309.258
  N     -174.953      90.480    -306.798
  C     -174.734      89.152    -306.900
  N     -175.462      88.232    -307.569
  C     -176.541      88.804    -308.134
  C     -176.914      90.135    -308.077
  C     -176.060      91.002    -307.380
  N     -176.273      92.360    -307.295
  N     -178.083      90.339    -308.779
  C     -178.407      89.155    -309.257
  N     -177.497      88.195    -308.904
  O     -180.636      88.094    -312.762
  O     -179.234      90.102    -313.541
  H     -178.158      84.743    -307.906
  H     -180.829      88.693    -312.016
  H     -173.848      88.782    -306.393
  H     -179.276      88.951    -309.867
  H     -176.726      86.297    -308.654
  H     -179.527      86.600    -308.360
  H     -179.815      87.215    -310.701
  H     -177.923      84.868    -311.322
  H     -177.434      85.931    -313.347
  H     -175.522      92.933    -306.939
  H     -176.980      92.770    -307.896
  H     -179.201      86.078    -313.229
  P     -181.826      85.700    -311.302
  C     -183.139      85.700    -309.060
  O     -182.548      86.464    -310.096
  O     -182.652      84.336    -311.454
  O     -181.719      86.445    -312.592
  H     -183.333      84.422    -312.140
  H     -183.300      86.348    -308.196
  H     -182.491      84.872    -308.760
  H     -184.105      85.313    -309.395
  H     -178.949      87.948    -316.977
  H     -177.689      88.326    -315.828
  H     -178.916      89.513    -316.202

 3  4  5  6  7  8  9  10  11  12  22  25  29  30  31  32 0
 6-311+G(2d,p)
 ****
 33  36  37 0
 6-311+G(2d,p)
 ****
 1  2  13  14  15  16  17  18  19  20  21  23  24  26 0
 3-21G
 ****
 27  28  34  35  38  39  40  41  42  43  44  45  46  47  48 0
 3-21G
 ****


