%nproc=1
%NoSave
%Mem=1900MB
#P OB98/GEN NMR

erre ene a

0 1
  C      136.349     684.688     -85.662
  O      135.600     684.378     -86.815
  H      137.219     684.025     -85.614
  H      135.735     684.528     -84.770
  H      136.700     685.724     -85.679
  P      134.558     685.453     -87.373
  C      132.182     686.219     -86.715
  O      133.124     685.155     -86.713
  C      130.971     685.906     -85.834
  O      131.410     685.283     -84.605
  C      130.196     687.162     -85.439
  O      129.205     687.560     -86.378
  C      129.553     686.734     -84.120
  O      128.285     686.088     -84.336
  C      130.566     685.738     -83.541
  N      131.127     686.519     -78.519
  C      130.031     686.029     -79.199
  N      128.947     685.742     -78.452
  N      130.013     685.851     -80.495
  C      131.138     686.274     -81.124
  C      132.274     686.796     -80.552
  C      132.321     686.923     -79.113
  O      133.272     687.339     -78.459
  N      133.201     687.151     -81.510
  C      132.580     686.920     -82.651
  N      131.363     686.312     -82.466
  O      134.340     685.007     -88.897
  O      135.014     686.882     -87.306
  H      127.681     686.736     -84.757
  H      134.158     685.792     -89.445
  H      131.098     686.615     -77.519
  H      132.987     687.130     -83.638
  H      130.068     684.851     -83.127
  H      129.362     687.599     -83.478
  H      128.879     685.942     -77.460
  H      130.875     687.995     -85.232
  H      128.064     685.559     -78.926
  H      130.329     685.178     -86.351
  H      131.872     686.356     -87.749
  H      132.662     687.148     -86.392
  P      128.780     689.096     -86.512
  C      127.504     690.812     -84.990
  O      127.856     689.472     -85.273
  O      127.749     689.071     -87.747
  O      129.900     690.058     -86.736
  H      128.201     689.348     -88.568
  H      126.882     690.841     -84.120
  H      126.973     691.225     -85.822
  H      128.391     691.384     -84.813

 6  7  8  9  10  11  12  13  14  15  26  29  33  34 0
 6-311+G(2d,p)
 ****
 36  38  39  40  41 0
 6-311+G(2d,p)
 ****
 1  2  3  4  5  16  17  18  19  20  21  22  23  24  25 0
 3-21G
 ****
 27  28  30  31  32  35  37  42  43  44  45  46  47 0
 3-21G
 ****
 48  49 0
 3-21G
 ****


