%nproc=1
%NoSave
%Mem=1900MB
#P OB98/GEN NMR

erre ene a

0 1
  C      368.852       1.470    -100.478
  O      369.901       2.204    -101.087
  P      370.979       2.905    -100.132
  C      370.768       4.391     -97.970
  O      370.130       3.717     -99.039
  C      369.919       5.589     -97.516
  O      368.601       5.139     -97.133
  C      370.465       6.329     -96.301
  O      371.554       7.170     -96.647
  C      369.224       7.061     -95.817
  O      369.005       8.251     -96.604
  C      368.116       6.029     -96.108
  N      367.697       5.281     -94.916
  C      366.643       5.825     -94.194
  O      366.071       6.866     -94.506
  N      366.271       5.127     -93.069
  C      366.886       4.012     -92.579
  O      366.537       3.452     -91.541
  C      368.012       3.502     -93.370
  C      368.360       4.152     -94.488
  O      371.560       4.028    -101.112
  O      371.992       1.956     -99.588
  H      370.906       4.294    -101.785
  H      368.217       8.683     -96.234
  H      365.497       5.491     -92.540
  H      368.526       2.622     -93.007
  H      369.201       3.798     -95.076
  H      367.234       6.526     -96.527
  H      369.291       7.369     -94.771
  H      370.784       5.604     -95.542
  H      369.812       6.268     -98.371
  H      371.744       4.740     -98.302
  H      370.912       3.690     -97.136
  P      372.695       7.368     -95.521
  C      372.591       8.039     -92.999
  O      371.969       8.047     -94.266
  O      373.567       8.545     -96.160
  O      373.464       6.118     -95.221
  H      373.017       9.240     -96.557
  H      372.144       8.820     -92.381
  H      373.662       8.214     -93.073
  H      372.415       7.071     -92.514
  H      368.215       1.063    -101.235
  H      368.283       2.119     -99.845
  H      369.266       0.675     -99.894

 3  4  5  6  7  8  9  10  11  12  13  24  28  29  30  31  32 0
 6-311+G(2d,p)
 ****
 33  34 0
 6-311+G(2d,p)
 ****
 1  2  14  15  16  17  18  19  20  21  22  23  25  26  27 0
 3-21G
 ****
 35  36  37  38  39  40  41  42  43  44  45 0
 3-21G
 ****


