%nproc=1
%NoSave
%Mem=1900MB
#P OB98/GEN NMR

erre ene a

0 1
  C      213.976    -102.557    -151.442
  O      215.151    -103.327    -151.635
  P      216.151    -103.508    -150.395
  C      217.455    -101.296    -150.786
  O      216.617    -102.048    -149.917
  C      218.587    -100.629    -150.006
  O      218.078     -99.461    -149.307
  C      219.235    -101.539    -148.958
  O      220.632    -101.227    -148.851
  C      218.576    -101.111    -147.660
  O      219.379    -101.437    -146.528
  C      218.405     -99.609    -147.910
  N      217.496     -96.247    -144.244
  C      218.613     -96.393    -145.044
  N      219.660     -95.586    -144.768
  N      218.693     -97.248    -146.030
  C      217.569     -97.996    -146.185
  C      216.398     -97.934    -145.468
  C      216.328     -96.988    -144.371
  O      215.379     -96.830    -143.606
  N      215.469     -98.824    -145.941
  C      216.090     -99.458    -146.916
  N      217.378     -99.016    -147.080
  O      217.463    -104.118    -151.081
  O      215.647    -104.406    -149.312
  H      219.064    -100.882    -145.788
  H      217.535    -105.066    -150.876
  H      217.488     -95.582    -143.490
  H      215.667    -100.254    -147.511
  H      219.340     -99.066    -147.731
  H      217.607    -101.613    -147.548
  H      219.688     -94.950    -143.981
  H      219.114    -102.610    -149.150
  H      220.506     -95.703    -145.311
  H      219.342    -100.268    -150.719
  H      216.858    -100.526    -151.279
  H      217.869    -101.953    -151.558
  P      221.629    -102.484    -148.747
  C      222.130    -102.520    -146.188
  O      221.423    -103.088    -147.277
  O      223.076    -101.804    -148.683
  O      221.505    -103.456    -149.874
  H      223.758    -102.419    -149.013
  H      221.406    -102.093    -145.487
  H      222.822    -101.734    -146.512
  H      222.699    -103.305    -145.685
  H      213.415    -102.528    -152.353
  H      214.245    -101.561    -151.157
  H      213.382    -103.001    -150.671

 3  4  5  6  7  8  9  10  11  12  23  26  30  31 0
 6-311+G(2d,p)
 ****
 33  35  36  37  38 0
 6-311+G(2d,p)
 ****
 1  2  13  14  15  16  17  18  19  20  21  22  24  25 0
 3-21G
 ****
 27  28  29  32  34  39  40  41  42  43  44  45  46  47  48  49 0
 3-21G
 ****


