%nproc=1
%NoSave
%Mem=1900MB
#P OB98/GEN NMR

erre ene a

0 1
  C        5.230    -100.622     181.801
  O        3.999    -101.103     182.314
  P        2.698    -100.176     182.331
  C        2.239    -100.126     184.915
  O        2.621     -99.440     183.744
  C        1.775     -99.105     185.962
  O        2.903     -98.360     186.465
  C        0.779     -98.110     185.369
  O       -0.553     -98.533     185.610
  C        1.141     -96.818     186.077
  O        0.540     -96.775     187.384
  C        2.678     -96.950     186.197
  N        3.502     -96.568     185.035
  C        3.950     -95.257     184.908
  O        3.725     -94.377     185.733
  N        4.656     -94.977     183.766
  C        4.986     -95.875     182.793
  O        5.399     -95.571     181.679
  C        4.725     -97.281     183.115
  C        3.987     -97.556     184.190
  O        1.501    -101.234     182.400
  O        2.558     -99.246     181.171
  H        0.772     -95.916     187.779
  H        1.120    -101.381     181.514
  H        4.863     -93.997     183.601
  H        5.094     -98.040     182.438
  H        3.747     -98.590     184.428
  H        3.054     -96.384     187.058
  H        0.760     -95.954     185.538
  H        0.963     -97.984     184.294
  H        1.322     -99.641     186.804
  H        3.083    -100.710     185.300
  H        1.434    -100.833     184.691
  P       -1.767     -97.760     184.910
  C       -2.725     -97.350     187.251
  O       -2.331     -96.759     186.029
  O       -2.788     -98.625     184.250
  O       -1.032     -96.800     183.859
  H       -1.045     -97.209     182.970
  H       -2.915     -96.559     187.979
  H       -1.937     -98.005     187.635
  H       -3.644     -97.924     187.104
  H        5.972    -101.389     181.878
  H        5.541     -99.766     182.363
  H        5.106    -100.348     180.774

 3  4  5  6  7  8  9  10  11  12  13  23  28  29  30  31  32 0
 6-311+G(2d,p)
 ****
 33  34 0
 6-311+G(2d,p)
 ****
 1  2  14  15  16  17  18  19  20  21  22  24  25  26  27 0
 3-21G
 ****
 35  36  37  38  39  40  41  42  43  44  45 0
 3-21G
 ****


