%nproc=1
%NoSave
%Mem=1900MB
#P OB98/GEN NMR

erre ene a

0 1
  C      -77.372     -86.080     -23.752
  O      -77.226     -86.791     -22.526
  P      -77.246     -88.393     -22.562
  C      -78.959     -90.269     -23.309
  O      -78.665     -88.908     -23.083
  C      -80.388     -90.568     -22.821
  O      -80.394     -90.793     -21.393
  C      -81.369     -89.431     -23.099
  O      -81.934     -89.522     -24.394
  C      -82.380     -89.610     -21.980
  O      -83.281     -90.691     -22.290
  C      -81.460     -89.994     -20.798
  N      -80.847     -88.904     -20.010
  C      -80.147     -89.204     -18.842
  O      -79.998     -90.338     -18.397
  N      -79.596     -88.136     -18.181
  C      -79.521     -86.851     -18.637
  O      -78.961     -85.947     -18.031
  C      -80.144     -86.617     -19.946
  C      -80.775     -87.625     -20.553
  O      -77.231     -88.810     -21.020
  O      -76.107     -89.007     -23.319
  H      -82.737     -91.442     -22.587
  H      -76.407     -89.285     -20.803
  H      -79.147     -88.324     -17.295
  H      -80.069     -85.624     -20.371
  H      -81.241     -87.462     -21.522
  H      -81.993     -90.638     -20.088
  H      -82.999     -88.722     -21.864
  H      -80.877     -88.463     -22.954
  H      -80.736     -91.487     -23.309
  H      -78.246     -90.915     -22.789
  H      -78.869     -90.492     -24.377
  P      -81.572     -88.423     -25.501
  C      -82.759     -86.333     -26.405
  O      -82.683     -87.272     -25.346
  O      -81.358     -88.933     -26.887
  O      -80.257     -87.714     -24.911
  H      -79.444     -88.109     -25.301
  H      -83.646     -85.712     -26.259
  H      -82.841     -86.847     -27.368
  H      -81.872     -85.694     -26.398
  H      -77.338     -85.028     -23.560
  H      -78.311     -86.331     -24.200
  H      -76.577     -86.347     -24.416

 3  4  5  6  7  8  9  10  11  12  13  23  28  29  30  31  32 0
 6-311+G(2d,p)
 ****
 33  34 0
 6-311+G(2d,p)
 ****
 1  2  14  15  16  17  18  19  20  21  22  24  25  26  27 0
 3-21G
 ****
 35  36  37  38  39  40  41  42  43  44  45 0
 3-21G
 ****


