%nproc=1
%NoSave
%Mem=1900MB
#P OB98/GEN NMR

erre ene a

0 1
  C     -319.827    -484.987    -898.941
  O     -318.723    -484.387    -898.301
  P     -318.471    -482.816    -898.521
  C     -317.236    -480.920    -897.231
  O     -317.579    -482.300    -897.281
  C     -316.842    -480.536    -895.811
  O     -317.953    -480.648    -894.911
  C     -315.759    -481.440    -895.211
  O     -314.439    -481.081    -895.621
  C     -315.901    -481.135    -893.701
  O     -315.260    -479.899    -893.381
  C     -317.454    -480.977    -893.581
  N     -318.348    -483.882    -889.521
  C     -317.824    -482.590    -889.601
  N     -317.402    -482.044    -888.451
  N     -317.696    -481.923    -890.711
  C     -318.142    -482.605    -891.811
  C     -318.682    -483.899    -891.841
  C     -318.825    -484.620    -890.621
  O     -319.221    -485.763    -890.461
  N     -319.032    -484.239    -893.141
  C     -318.664    -483.202    -893.881
  N     -318.113    -482.219    -893.111
  O     -319.921    -482.162    -898.211
  O     -317.982    -482.435    -899.881
  H     -314.309    -480.062    -893.461
  H     -319.960    -481.276    -898.581
  H     -318.418    -484.341    -888.651
  H     -318.821    -483.122    -894.941
  H     -317.732    -480.149    -892.901
  H     -315.487    -481.898    -893.071
  H     -317.435    -482.547    -887.551
  H     -315.960    -482.510    -895.371
  H     -316.962    -481.119    -888.471
  H     -316.479    -479.477    -895.801
  H     -318.100    -480.314    -897.541
  H     -316.417    -480.721    -897.921
  P     -313.371    -482.264    -895.751
  C     -311.475    -482.784    -897.471
  O     -312.475    -481.892    -897.061
  O     -314.260    -483.517    -896.251
  O     -312.639    -482.562    -894.511
  H     -313.841    -484.349    -895.991
  H     -311.144    -482.485    -898.481
  H     -311.845    -483.828    -897.491
  H     -310.613    -482.705    -896.811
  H     -319.858    -486.028    -898.697
  H     -319.731    -484.871    -900.000
  H     -320.730    -484.517    -898.611

 3  4  5  6  7  8  9  10  11  12  23  26  30  31 0
 6-311+G(2d,p)
 ****
 33  35  36  37  38 0
 6-311+G(2d,p)
 ****
 1  2  13  14  15  16  17  18  19  20  21  22  24  25 0
 3-21G
 ****
 27  28  29  32  34  39  40  41  42  43  44  45  46  47  48  49 0
 3-21G
 ****


