%nproc=1
%NoSave
%Mem=1900MB
#P OB98/GEN NMR

erre ene a

0 1
  C     1768.510    2079.248    -965.722
  O     1769.204    2078.345    -964.912
  H     1768.549    2078.973    -966.754
  H     1767.449    2079.236    -965.390
  H     1768.910    2080.270    -965.564
  P     1770.790    2078.201    -965.188
  C     1770.505    2076.246    -963.499
  O     1771.231    2076.731    -964.616
  C     1771.389    2075.272    -962.741
  O     1772.707    2075.849    -962.529
  C     1770.879    2074.887    -961.343
  O     1769.886    2073.894    -961.388
  C     1772.173    2074.381    -960.709
  O     1772.438    2073.063    -961.157
  C     1773.201    2075.392    -961.233
  N     1775.084    2076.898    -956.725
  C     1775.013    2075.676    -957.278
  N     1774.478    2075.324    -958.515
  C     1774.031    2076.455    -959.152
  C     1774.061    2077.772    -958.690
  C     1774.604    2077.954    -957.425
  N     1774.709    2079.211    -956.825
  N     1773.461    2078.628    -959.583
  C     1773.130    2077.823    -960.580
  N     1773.424    2076.511    -960.366
  O     1771.462    2079.212    -964.139
  O     1771.229    2078.458    -966.591
  H     1773.264    2072.760    -960.718
  H     1772.365    2079.470    -964.441
  H     1775.402    2074.831    -956.740
  H     1772.626    2078.201    -961.534
  H     1774.205    2074.918    -961.419
  H     1772.074    2074.343    -959.590
  H     1770.504    2075.790    -960.822
  H     1771.548    2074.365    -963.345
  H     1769.603    2075.696    -963.860
  H     1775.006    2079.227    -955.846
  H     1774.242    2079.995    -957.250
  H     1770.217    2077.065    -962.856
  P     1768.754    2073.912    -960.248
  C     1766.885    2073.450    -962.057
  O     1767.546    2073.029    -960.887
  O     1768.173    2075.437    -960.374
  O     1769.210    2073.549    -958.874
  H     1767.808    2075.728    -959.522
  H     1766.128    2072.739    -962.314
  H     1767.591    2073.525    -962.858
  H     1766.434    2074.406    -961.888

 6  7  8  9  10  11  12  13  14  15  25  28  32  33  34  35 0
 6-311+G(2d,p)
 ****
 36  39  40 0
 6-311+G(2d,p)
 ****
 1  2  3  4  5  16  17  18  19  20  21  22  23  24 0
 3-21G
 ****
 26  27  29  30  31  37  38  41  42  43  44  45  46  47 0
 3-21G
 ****
 48 0
 3-21G
 ****


