%nproc=1
%NoSave
%Mem=1900MB
#P OB98/GEN NMR

erre ene a

0 1
  C      915.679       5.996    -266.758
  O      916.571       5.513    -267.742
  P      917.815       6.386    -268.257
  C      918.397       7.570    -270.473
  O      917.366       6.965    -269.690
  C      918.022       7.594    -271.957
  O      917.975       6.227    -272.471
  C      916.657       8.250    -272.263
  O      916.810       8.887    -273.535
  C      915.747       7.048    -272.379
  O      914.534       7.344    -273.076
  C      916.663       6.028    -273.054
  N      916.194       4.659    -272.882
  C      915.069       4.281    -273.620
  O      914.481       5.116    -274.318
  N      914.610       2.998    -273.517
  C      915.159       2.188    -272.666
  N      914.669       0.918    -272.613
  C      916.260       2.577    -271.775
  C      916.744       3.814    -271.941
  O      919.130       5.689    -268.242
  O      917.766       7.696    -267.335
  H      914.209       8.216    -272.763
  H      918.131       7.496    -266.438
  H      916.654       1.886    -271.041
  H      917.554       4.192    -271.339
  H      916.752       6.239    -274.135
  H      915.464       6.701    -271.373
  H      916.339       8.962    -271.507
  H      918.819       8.122    -272.500
  H      913.917       0.689    -273.249
  H      919.304       6.979    -270.352
  H      915.074       0.183    -272.046
  H      918.595       8.582    -270.103
  P      916.166      10.338    -273.822
  C      913.839      11.001    -274.645
  O      914.575      10.154    -273.777
  O      916.696      11.026    -275.037
  O      916.473      11.177    -272.480
  H      916.353      12.125    -272.667
  H      912.814      10.600    -274.743
  H      914.296      11.047    -275.633
  H      913.788      12.012    -274.226
  H      914.928       5.258    -266.564
  H      915.214       6.894    -267.108
  H      916.219       6.201    -265.857

 3  4  5  6  7  8  9  10  11  12  13  23  27  28  29  30  32 0
 6-311+G(2d,p)
 ****
 34  35 0
 6-311+G(2d,p)
 ****
 1  2  14  15  16  17  18  19  20  21  22  24  25  26 0
 3-21G
 ****
 31  33  36  37  38  39  40  41  42  43  44  45  46 0
 3-21G
 ****


