%nproc=1
%NoSave
%Mem=1900MB
#P OB98/GEN NMR

erre ene a

0 1
  C     -205.888     600.683    -656.427
  O     -207.022     600.228    -657.146
  P     -207.919     598.999    -656.614
  C     -206.641     597.076    -657.794
  O     -207.809     597.878    -657.762
  C     -206.449     596.473    -659.194
  O     -207.567     595.577    -659.460
  C     -206.394     597.493    -660.338
  O     -205.472     597.000    -661.313
  C     -207.816     597.485    -660.863
  O     -207.893     597.966    -662.196
  C     -208.178     596.006    -660.702
  N     -209.620     595.785    -660.685
  C     -210.334     596.081    -661.843
  O     -209.766     596.539    -662.823
  N     -211.688     595.850    -661.865
  C     -212.285     595.429    -660.789
  N     -213.616     595.149    -660.881
  C     -211.586     595.202    -659.507
  C     -210.256     595.369    -659.542
  O     -209.305     599.365    -656.214
  O     -207.027     598.362    -655.443
  H     -207.695     598.933    -662.189
  H     -207.168     598.802    -654.568
  H     -212.139     594.881    -658.633
  H     -209.666     595.196    -658.653
  H     -207.703     595.405    -661.500
  H     -208.452     598.119    -660.233
  H     -206.061     598.486    -659.992
  H     -205.537     595.854    -659.181
  H     -214.021     595.152    -661.806
  H     -206.749     596.269    -657.068
  H     -214.079     594.539    -660.201
  H     -205.761     597.674    -657.503
  P     -204.449     598.037    -661.999
  C     -205.369     597.455    -664.355
  O     -204.240     597.584    -663.531
  O     -203.054     597.596    -661.314
  O     -204.692     599.483    -661.751
  H     -202.451     598.349    -661.325
  H     -205.036     597.142    -665.339
  H     -205.905     598.391    -664.438
  H     -206.045     596.690    -663.949
  H     -205.439     601.501    -656.950
  H     -205.180     599.886    -656.336
  H     -206.189     601.005    -655.452

 3  4  5  6  7  8  9  10  11  12  13  23  27  28  29  30  32 0
 6-311+G(2d,p)
 ****
 34  35 0
 6-311+G(2d,p)
 ****
 1  2  14  15  16  17  18  19  20  21  22  24  25  26 0
 3-21G
 ****
 31  33  36  37  38  39  40  41  42  43  44  45  46 0
 3-21G
 ****


