%nproc=1
%NoSave
%Mem=1900MB
#P OB98/GEN NMR

erre ene a

0 1
  C       65.414     171.711     515.694
  O       66.371     172.516     515.024
  P       67.376     173.474     515.847
  C       66.323     175.659     514.941
  O       66.548     174.828     516.078
  C       66.402     177.130     515.351
  O       65.185     177.523     516.002
  C       67.526     177.447     516.334
  O       68.787     177.483     515.680
  C       67.032     178.780     516.900
  O       67.337     179.846     515.996
  C       65.515     178.552     516.961
  N       65.040     178.198     518.302
  C       64.750     179.257     519.167
  O       64.887     180.436     518.799
  N       64.282     178.985     520.425
  C       64.138     177.739     520.802
  N       63.608     177.522     522.035
  C       64.486     176.588     519.945
  C       64.918     176.891     518.715
  O       68.716     173.653     515.222
  O       67.423     172.839     517.311
  H       66.770     179.710     515.205
  H       68.117     172.140     517.421
  H       64.365     175.580     520.314
  H       65.179     176.104     518.023
  H       64.981     179.456     516.629
  H       67.475     179.028     517.874
  H       67.555     176.689     517.134
  H       66.516     177.726     514.438
  H       63.226     178.329     522.519
  H       65.317     175.449     514.558
  H       63.197     176.632     522.284
  H       67.059     175.418     514.167
  P       70.007     176.732     516.401
  C       71.048     178.691     517.757
  O       70.250     177.516     517.792
  O       71.266     177.138     515.500
  O       69.847     175.259     516.524
  H       71.512     176.409     514.889
  H       70.911     179.227     518.711
  H       70.742     179.351     516.937
  H       72.110     178.421     517.654
  H       64.850     171.154     514.975
  H       64.754     172.336     516.258
  H       65.916     171.035     516.354

 3  4  5  6  7  8  9  10  11  12  13  23  27  28  29  30  32 0
 6-311+G(2d,p)
 ****
 34  35 0
 6-311+G(2d,p)
 ****
 1  2  14  15  16  17  18  19  20  21  22  24  25  26 0
 3-21G
 ****
 31  33  36  37  38  39  40  41  42  43  44  45  46 0
 3-21G
 ****


