%nproc=1
%NoSave
%Mem=1900MB
#P OB98/GEN NMR

erre ene a

0 1
  C      583.244      84.099     214.003
  O      582.483      84.872     214.915
  P      580.909      84.586     215.016
  C      580.525      87.155     215.139
  O      580.212      85.878     215.676
  C      579.733      88.255     215.857
  O      578.319      87.934     215.833
  C      580.132      88.441     217.331
  O      580.008      89.827     217.690
  C      579.062      87.680     218.081
  O      578.930      88.152     219.423
  C      577.844      87.943     217.192
  N      573.674      86.794     219.820
  C      574.333      88.004     219.704
  N      573.859      89.021     220.461
  N      575.352      88.200     218.909
  C      575.721      87.092     218.223
  C      575.139      85.842     218.242
  C      574.020      85.635     219.132
  O      573.405      84.582     219.302
  N      575.765      84.975     217.382
  C      576.753      85.689     216.863
  N      576.793      86.963     217.372
  O      580.816      83.481     216.173
  O      580.279      84.093     213.755
  H      578.894      89.131     219.374
  H      580.632      82.605     215.776
  H      572.897      86.683     220.453
  H      577.485      85.323     216.148
  H      577.412      88.933     217.388
  H      579.311      86.611     218.111
  H      573.123      88.914     221.140
  H      581.143      88.091     217.571
  H      574.350      89.905     220.429
  H      579.856      89.192     215.299
  H      580.270      87.168     214.079
  H      581.600      87.340     215.239
  P      581.371      90.579     218.073
  C      580.392      91.551     220.292
  O      580.940      91.812     219.009
  O      581.811      91.279     216.702
  O      582.430      89.683     218.622
  H      582.775      91.424     216.690
  H      581.061      91.964     221.046
  H      580.261      90.473     220.474
  H      579.417      92.044     220.371
  H      584.269      84.402     214.048
  H      582.871      84.248     213.011
  H      583.166      83.064     214.262

 3  4  5  6  7  8  9  10  11  12  23  26  30  31 0
 6-311+G(2d,p)
 ****
 33  35  36  37  38 0
 6-311+G(2d,p)
 ****
 1  2  13  14  15  16  17  18  19  20  21  22  24  25 0
 3-21G
 ****
 27  28  29  32  34  39  40  41  42  43  44  45  46  47  48  49 0
 3-21G
 ****


