%nproc=1
%NoSave
%Mem=1900MB
#P OB98/GEN NMR

erre ene a

0 1
  C     -242.036     -83.268     788.413
  O     -240.690     -83.792     788.412
  P     -239.894     -84.120     787.067
  C     -237.388     -83.608     786.645
  O     -238.339     -84.357     787.414
  C     -236.038     -83.504     787.357
  O     -236.119     -82.607     788.499
  C     -235.524     -84.824     787.935
  O     -234.990     -85.648     786.900
  C     -234.491     -84.313     788.941
  O     -233.234     -84.010     788.283
  C     -235.164     -83.031     789.459
  N     -235.771     -83.225     790.784
  C     -235.176     -82.564     791.858
  O     -234.136     -81.895     791.670
  N     -235.731     -82.686     793.106
  C     -236.755     -83.470     793.274
  N     -237.287     -83.555     794.532
  C     -237.360     -84.268     792.181
  C     -236.829     -84.094     790.990
  O     -240.118     -83.136     785.960
  O     -240.396     -85.589     786.635
  H     -233.383     -83.204     787.743
  H     -240.351     -85.659     785.667
  H     -238.194     -84.925     792.381
  H     -237.214     -84.632     790.125
  H     -234.427     -82.215     789.541
  H     -234.267     -85.048     789.726
  H     -236.328     -85.347     788.471
  H     -235.305     -83.080     786.651
  H     -236.840     -82.989     795.260
  H     -237.802     -82.588     786.496
  H     -238.076     -84.137     794.779
  H     -237.274     -84.092     785.670
  P     -235.839     -86.921     786.401
  C     -235.595     -88.158     784.153
  O     -234.946     -87.700     785.321
  O     -237.237     -86.638     785.973
  O     -235.805     -87.921     787.654
  H     -236.639     -88.439     787.672
  H     -234.875     -88.287     783.353
  H     -236.377     -87.437     783.827
  H     -236.101     -89.122     784.361
  H     -242.363     -83.127     789.422
  H     -242.688     -83.958     787.920
  H     -242.054     -82.330     787.898

 3  4  5  6  7  8  9  10  11  12  13  23  27  28  29  30  32 0
 6-311+G(2d,p)
 ****
 34  35 0
 6-311+G(2d,p)
 ****
 1  2  14  15  16  17  18  19  20  21  22  24  25  26 0
 3-21G
 ****
 31  33  36  37  38  39  40  41  42  43  44  45  46 0
 3-21G
 ****


