%nproc=1
%NoSave
%Mem=1900MB
#P OB98/GEN NMR

erre ene a

0 1
  C       -4.836     -11.694      -4.848
  O       -3.560     -11.111      -4.643
  P       -2.265     -12.022      -4.919
  C       -1.308     -13.127      -7.075
  O       -2.451     -12.653      -6.382
  C       -1.674     -14.323      -7.957
  O       -1.852     -15.486      -7.108
  C       -2.963     -14.153      -8.769
  O       -2.786     -14.879      -9.991
  C       -4.002     -14.848      -7.910
  O       -5.153     -15.242      -8.650
  C       -3.179     -16.002      -7.348
  N       -6.065     -19.612      -5.298
  C       -5.795     -19.344      -6.628
  N       -6.324     -20.197      -7.530
  N       -5.072     -18.334      -7.034
  C       -4.597     -17.578      -6.016
  C       -4.826     -17.717      -4.668
  C       -5.596     -18.859      -4.230
  O       -5.787     -19.184      -3.061
  N       -4.250     -16.703      -3.951
  C       -3.606     -15.997      -4.858
  N       -3.748     -16.514      -6.117
  O       -2.489     -13.264      -3.940
  O       -0.945     -11.351      -4.706
  H       -5.481     -14.457      -9.133
  H       -2.032     -13.127      -3.087
  H       -6.614     -20.416      -5.045
  H       -3.021     -15.113      -4.663
  H       -3.098     -16.841      -8.051
  H       -4.332     -14.174      -7.110
  H       -6.865     -21.012      -7.286
  H       -3.215     -13.110      -8.977
  H       -6.115     -20.042      -8.509
  H       -0.828     -14.532      -8.622
  H       -0.560     -13.449      -6.344
  H       -0.880     -12.318      -7.675
  P       -3.507     -14.317     -11.307
  C       -3.190     -12.212     -12.781
  O       -3.042     -12.800     -11.504
  O       -5.035     -14.176     -10.842
  O       -3.398     -15.200     -12.507
  H       -5.624     -14.337     -11.602
  H       -3.219     -11.125     -12.666
  H       -4.111     -12.539     -13.271
  H       -2.333     -12.478     -13.405
  H       -5.597     -10.975      -4.627
  H       -4.948     -12.542      -4.205
  H       -4.926     -12.006      -5.868

 3  4  5  6  7  8  9  10  11  12  23  26  30  31 0
 6-311+G(2d,p)
 ****
 33  35  36  37  38 0
 6-311+G(2d,p)
 ****
 1  2  13  14  15  16  17  18  19  20  21  22  24  25 0
 3-21G
 ****
 27  28  29  32  34  39  40  41  42  43  44  45  46  47  48  49 0
 3-21G
 ****


