%nproc=1
%NoSave
%Mem=1900MB
#P OB98/GEN NMR

erre ene a

0 1
  C       21.740     -97.465     100.652
  O       20.706     -97.356     101.636
  P       20.616     -98.507     102.748
  C       18.903    -100.305     103.499
  O       19.247     -99.319     102.539
  C       17.586    -101.008     103.134
  O       16.489    -100.054     103.084
  C       17.624    -101.709     101.773
  O       16.747    -102.839     101.824
  C       17.022    -100.668     100.849
  O       16.565    -101.247      99.627
  C       15.933    -100.094     101.754
  N       12.297     -97.526      99.386
  C       12.433     -98.883      99.601
  N       11.434     -99.668      99.146
  N       13.458     -99.423     100.208
  C       14.361     -98.510     100.640
  C       14.343     -97.143     100.482
  C       13.216     -96.563      99.786
  O       13.050     -95.369      99.556
  N       15.455     -96.561     101.038
  C       16.145     -97.575     101.522
  N       15.507     -98.772     101.338
  O       20.356     -97.682     104.097
  O       21.848     -99.342     102.855
  H       17.359    -101.550      99.133
  H       21.157     -97.697     104.651
  H       11.492     -97.165      98.904
  H       17.105     -97.500     102.011
  H       15.036    -100.726     101.777
  H       17.773     -99.905     100.606
  H       10.593     -99.313      98.717
  H       18.617    -102.036     101.452
  H       11.488    -100.663      99.327
  H       17.351    -101.736     103.918
  H       18.808     -99.850     104.489
  H       19.726    -101.022     103.583
  P       17.408    -104.282     101.607
  C       18.129    -105.603      99.492
  O       17.853    -104.342     100.070
  O       16.160    -105.282     101.675
  O       18.467    -104.638     102.597
  H       16.453    -106.170     101.947
  H       17.287    -105.899      98.860
  H       18.303    -106.373     100.249
  H       19.024    -105.515      98.870
  H       21.681     -96.635      99.979
  H       21.617     -98.377     100.105
  H       22.694     -97.465     101.136

 3  4  5  6  7  8  9  10  11  12  23  26  30  31 0
 6-311+G(2d,p)
 ****
 33  35  36  37  38 0
 6-311+G(2d,p)
 ****
 1  2  13  14  15  16  17  18  19  20  21  22  24  25 0
 3-21G
 ****
 27  28  29  32  34  39  40  41  42  43  44  45  46  47  48  49 0
 3-21G
 ****


