%nproc=1
%NoSave
%Mem=1900MB
#P OB98/GEN NMR

erre ene a

0 1
  C      891.344    -895.818     655.340
  O      892.006    -894.858     656.128
  H      891.975    -896.058     654.475
  H      890.401    -895.428     654.966
  H      891.181    -896.738     655.903
  P      891.280    -894.308     657.437
  C      892.930    -894.938     659.325
  O      891.728    -895.298     658.621
  C      894.168    -895.288     658.541
  O      894.195    -894.548     657.302
  C      895.484    -894.978     659.292
  O      896.360    -896.108     659.185
  C      896.060    -893.808     658.504
  O      897.468    -893.708     658.648
  C      895.544    -894.108     657.089
  N      895.640    -892.948     656.234
  C      896.922    -892.648     655.745
  O      897.897    -893.368     656.048
  N      897.092    -891.548     654.958
  C      896.075    -890.778     654.732
  N      896.327    -889.668     653.951
  C      894.746    -891.028     655.225
  C      894.577    -892.118     655.973
  O      889.806    -894.108     657.311
  O      892.061    -892.948     657.808
  H      897.882    -894.588     658.490
  H      891.478    -892.388     658.366
  H      893.911    -890.338     655.017
  H      893.589    -892.398     656.381
  H      896.105    -894.948     656.631
  H      895.614    -892.878     658.880
  H      895.336    -894.728     660.345
  H      894.119    -896.358     658.274
  H      897.289    -889.528     653.638
  H      892.905    -895.428     660.317
  H      895.635    -888.968     653.730
  H      892.885    -893.848     659.493
  P      895.873    -897.448     659.942
  C      896.653    -899.308     658.310
  O      895.567    -898.548     658.836
  O      894.435    -897.038     660.512
  O      896.816    -897.878     661.026
  H      894.489    -896.978     661.504
  H      896.284    -900.000     657.582
  H      897.130    -899.845     659.103
  H      897.360    -898.649     657.850

 6  7  8  9  10  11  12  13  14  15  16  26  30  31  32  33  35 0
 6-311+G(2d,p)
 ****
 37  38 0
 6-311+G(2d,p)
 ****
 1  2  3  4  5  17  18  19  20  21  22  23  24  25 0
 3-21G
 ****
 27  28  29  34  36  39  40  41  42  43  44  45  46 0
 3-21G
 ****


