%nproc=1
%NoSave
%Mem=1900MB
#P OB98/GEN NMR

erre ene a

0 1
  C      425.879    -171.752     299.557
  O      426.545    -172.746     300.344
  P      426.025    -172.938     301.854
  C      428.062    -171.621     302.810
  O      426.645    -171.746     302.733
  C      428.457    -170.620     303.896
  O      428.086    -169.278     303.532
  C      427.794    -170.864     305.244
  O      428.430    -171.902     305.968
  C      428.003    -169.515     305.924
  O      429.326    -169.465     306.496
  C      427.888    -168.530     304.745
  N      424.949    -164.868     306.669
  C      426.235    -165.246     307.010
  N      426.836    -164.520     307.982
  N      426.880    -166.234     306.448
  C      426.168    -166.843     305.470
  C      424.883    -166.573     305.048
  C      424.178    -165.490     305.700
  O      423.017    -165.143     305.461
  N      424.502    -167.402     304.024
  C      425.561    -168.169     303.812
  N      426.592    -167.870     304.675
  O      426.837    -174.224     302.358
  O      424.550    -173.128     301.968
  H      429.439    -170.281     307.030
  H      426.336    -174.686     303.054
  H      424.497    -164.104     307.140
  H      425.630    -168.932     303.049
  H      428.664    -167.755     304.787
  H      427.297    -169.341     306.741
  H      426.430    -163.697     308.408
  H      426.710    -171.052     305.119
  H      427.799    -164.759     308.218
  H      429.551    -170.662     304.004
  H      428.454    -171.292     301.849
  H      428.492    -172.612     303.009
  P      427.943    -173.401     305.681
  C      425.913    -173.961     307.188
  O      426.370    -173.421     305.964
  O      428.573    -174.223     306.904
  O      428.384    -173.956     304.362
  H      428.748    -175.145     306.647
  H      426.537    -173.640     308.026
  H      425.915    -175.051     307.132
  H      424.888    -173.626     307.360
  H      426.313    -171.721     298.580
  H      425.986    -170.796     300.025
  H      424.840    -171.997     299.478

 3  4  5  6  7  8  9  10  11  12  23  26  30  31  33  0
 6-311+G(2d,p)
 ****
 35  36  37  38 0
 6-311+G(2d,p)
 ****
 1  2  13  14  15  16  17  18  19  20  21  22  24  25  27  28  29 0
 3-21G
 ****
 32  34  39  40  41  42  43  44  45  46  47  48  49 0
 3-21G
 ****


