%nproc=1
%NoSave
%Mem=1900MB
#P OB98/GEN NMR

erre ene a

0 1
  C     -914.198     942.395    -114.541
  O     -914.657     941.490    -115.542
  P     -913.819     940.191    -115.909
  C     -915.878     938.958    -116.826
  O     -914.596     939.490    -117.128
  C     -916.360     938.070    -117.991
  O     -915.327     937.109    -118.384
  C     -917.552     937.196    -117.638
  O     -918.797     937.847    -117.358
  C     -917.545     936.190    -118.797
  O     -918.153     936.740    -119.958
  C     -916.015     935.990    -119.011
  N     -915.550     934.706    -118.475
  C     -915.436     933.688    -119.407
  O     -915.695     933.811    -120.607
  N     -915.030     932.455    -118.917
  C     -914.795     932.154    -117.580
  O     -914.486     931.060    -117.199
  C     -914.939     933.302    -116.654
  C     -915.312     934.507    -117.113
  O     -913.487     939.255    -114.764
  O     -912.529     940.789    -116.643
  H     -918.113     936.063    -120.660
  H     -912.710     941.309    -117.440
  H     -914.968     931.712    -119.569
  H     -914.740     933.123    -115.602
  H     -915.417     935.343    -116.455
  H     -915.781     936.049    -120.081
  H     -918.086     935.280    -118.545
  H     -917.329     936.633    -116.704
  H     -916.553     938.706    -118.852
  H     -916.593     939.784    -116.706
  H     -915.824     938.397    -115.888
  P     -920.034     937.120    -116.689
  C     -920.143     939.033    -114.903
  O     -920.856     938.221    -115.830
  O     -919.755     935.797    -116.041
  O     -921.005     936.902    -117.940
  H     -921.552     936.100    -117.805
  H     -920.859     939.658    -114.395
  H     -919.417     939.668    -115.477
  H     -919.618     938.419    -114.165
  H     -914.896     943.200    -114.441
  H     -913.242     942.784    -114.823
  H     -914.112     941.880    -113.607

 3  4  5  6  7  8  9  10  11  12  13  23  28  29  30  31  32 0
 6-311+G(2d,p)
 ****
 33  34 0
 6-311+G(2d,p)
 ****
 1  2  14  15  16  17  18  19  20  21  22  24  25  26  27 0
 3-21G
 ****
 35  36  37  38  39  40  41  42  43  44  45 0
 3-21G
 ****


