%nproc=1
%NoSave
%Mem=1900MB
#P OB98/GEN NMR

erre ene a

0 1
  C      162.741      -8.108     -44.827
  O      162.829      -8.959     -43.701
  H      163.366      -7.229     -44.649
  H      161.710      -7.777     -44.981
  H      163.105      -8.621     -45.721
  P      161.936     -10.288     -43.678
  C      159.400     -10.797     -43.659
  O      160.415      -9.807     -43.530
  C      158.074     -10.157     -44.064
  O      158.217      -9.459     -45.318
  C      156.939     -11.153     -44.271
  O      156.449     -11.615     -43.029
  C      155.971     -10.307     -45.082
  O      155.247      -9.400     -44.237
  C      156.945      -9.534     -46.005
  N      157.103     -10.140     -47.323
  C      155.986     -10.082     -48.164
  O      154.943      -9.558     -47.776
  N      156.081     -10.640     -49.415
  C      157.197     -11.166     -49.809
  N      157.226     -11.696     -51.061
  C      158.407     -11.216     -48.967
  C      158.288     -10.700     -47.745
  O      162.349     -11.345     -42.700
  O      162.000     -10.822     -45.186
  H      154.453      -9.885     -43.935
  H      162.714     -11.480     -45.285
  H      159.321     -11.655     -49.340
  H      159.131     -10.697     -47.061
  H      156.601      -8.501     -46.144
  H      155.233     -10.912     -45.608
  H      157.275     -11.987     -44.896
  H      157.810      -9.413     -43.301
  H      156.376     -11.620     -51.610
  H      159.299     -11.284     -42.683
  H      158.074     -11.981     -51.528
  H      159.692     -11.555     -44.393
  P      155.453     -12.867     -42.933
  C      152.890     -13.026     -43.063
  O      154.052     -12.356     -43.527
  O      155.368     -13.510     -41.591
  O      155.974     -13.853     -44.081
  H      156.788     -14.329     -43.782
  H      152.024     -12.601     -43.526
  H      152.816     -12.918     -42.001
  H      152.954     -14.065     -43.312

 6  7  8  9  10  11  12  13  14  15  16  26  30  31  32  33  35 0
 6-311+G(2d,p)
 ****
 37  38 0
 6-311+G(2d,p)
 ****
 1  2  3  4  5  17  18  19  20  21  22  23  24  25 0
 3-21G
 ****
 27  28  29  34  36  39  40  41  42  43  44  45  46 0
 3-21G
 ****


