%nproc=1
%NoSave
%Mem=1900MB
#P OB98/GEN NMR

erre ene a

0 1
  C     -325.620     788.674    -156.408
  O     -324.577     788.642    -157.365
  H     -325.186     788.904    -155.433
  H     -326.117     787.703    -156.351
  H     -326.345     789.454    -156.661
  P     -324.948     788.284    -158.883
  C     -325.343     790.692    -159.734
  O     -324.493     789.552    -159.763
  C     -324.667     791.869    -160.435
  O     -323.574     792.368    -159.637
  C     -324.082     791.534    -161.806
  O     -325.095     791.548    -162.799
  C     -323.086     792.668    -161.971
  O     -323.785     793.881    -162.326
  C     -322.514     792.789    -160.538
  N     -317.496     792.412    -161.172
  C     -318.386     793.320    -161.705
  N     -317.872     794.238    -162.552
  N     -319.665     793.326    -161.444
  C     -320.054     792.303    -160.640
  C     -319.268     791.327    -160.068
  C     -317.839     791.373    -160.310
  O     -317.006     790.607    -159.836
  N     -320.024     790.405    -159.388
  C     -321.262     790.855    -159.506
  N     -321.331     791.993    -160.271
  O     -326.358     787.843    -159.135
  O     -323.884     787.160    -159.292
  H     -323.108     794.572    -162.457
  H     -324.235     786.265    -159.122
  H     -316.515     792.449    -161.421
  H     -322.132     790.391    -159.065
  H     -322.268     793.829    -160.287
  H     -322.350     792.478    -162.749
  H     -316.922     794.195    -162.903
  H     -323.537     790.582    -161.788
  H     -318.521     794.882    -162.993
  H     -325.408     792.680    -160.512
  H     -325.538     790.935    -158.686
  H     -326.298     790.476    -160.226
  P     -325.448     790.242    -163.667
  C     -327.862     790.920    -164.280
  O     -326.537     790.721    -164.740
  O     -325.836     789.049    -162.863
  O     -324.158     790.017    -164.585
  H     -323.443     789.505    -164.134
  H     -328.479     791.236    -165.095
  H     -327.866     791.671    -163.517
  H     -328.242     790.003    -163.880

 6  7  8  9  10  11  12  13  14  15  26  29  33  34 0
 6-311+G(2d,p)
 ****
 36  38  39  40  41 0
 6-311+G(2d,p)
 ****
 1  2  3  4  5  16  17  18  19  20  21  22  23  24  25 0
 3-21G
 ****
 27  28  30  31  32  35  37  42  43  44  45  46  47 0
 3-21G
 ****
 48  49 0
 3-21G
 ****


