%nproc=1
%NoSave
%Mem=1900MB
#P OB98/GEN NMR

erre ene a

0 1
  C      426.330     822.426     312.983
  O      425.246     822.312     313.888
  H      426.003     822.995     312.111
  H      426.650     821.429     312.656
  H      427.167     822.950     313.449
  P      425.537     821.530     315.257
  C      423.810     819.731     314.485
  O      425.110     820.001     315.005
  C      423.531     818.237     314.541
  O      424.300     817.557     313.521
  C      423.936     817.580     315.863
  O      422.994     817.803     316.896
  C      424.044     816.123     315.442
  O      422.751     815.480     315.455
  C      424.581     816.225     314.015
  N      428.058     812.651     312.919
  C      426.712     812.655     312.818
  N      425.853     813.655     313.110
  C      426.528     814.741     313.539
  C      427.898     814.883     313.686
  C      428.683     813.777     313.354
  N      430.055     813.749     313.485
  N      428.205     816.138     314.180
  C      427.042     816.747     314.317
  N      426.002     815.942     313.933
  O      424.391     822.081     316.241
  O      426.898     821.730     315.828
  H      422.347     815.719     316.309
  H      424.764     822.765     316.820
  H      426.257     811.743     312.453
  H      426.900     817.754     314.692
  H      424.072     815.517     313.338
  H      424.700     815.566     316.120
  H      424.933     817.932     316.164
  H      422.464     818.067     314.339
  H      423.754     820.076     313.449
  H      423.077     820.284     315.082
  H      430.548     812.900     313.286
  H      430.512     814.542     313.916
  P      423.454     817.520     318.404
  C      421.459     815.900     318.890
  O      422.877     816.080     318.810
  O      422.586     818.538     319.263
  O      424.912     817.693     318.642
  H      423.105     818.870     320.028
  H      421.243     814.890     319.171
  H      421.019     816.107     317.937
  H      421.055     816.568     319.622

 6  7  8  9  10  11  12  13  14  15  25  28  32  33  34  35 0
 6-311+G(2d,p)
 ****
 36  37  40 0
 6-311+G(2d,p)
 ****
 1  2  3  4  5  16  17  18  19  20  21  22  23  24 0
 3-21G
 ****
 26  27  29  30  31  38  39 41  42  43  44  45  46  47  48 0
 3-21G
 ****


