%nproc=1
%NoSave
%Mem=1900MB
#P OB98/GEN NMR

erre ene a

0 1
  C      102.556    1148.961    -147.110
  O      101.967    1147.779    -146.619
  H      103.109    1148.724    -148.022
  H      103.256    1149.369    -146.378
  H      101.790    1149.708    -147.349
  P      100.977    1147.920    -145.358
  C       98.848    1148.491    -146.740
  O       99.816    1148.946    -145.808
  C       97.433    1148.683    -146.189
  O       97.305    1150.051    -145.707
  C       96.325    1148.443    -147.216
  O       95.238    1147.790    -146.561
  C       95.901    1149.838    -147.635
  O       94.569    1149.889    -148.130
  C       96.144    1150.633    -146.346
  N       96.345    1152.057    -146.631
  C       95.500    1152.948    -145.966
  O       94.632    1152.534    -145.196
  N       95.621    1154.296    -146.226
  C       96.452    1154.700    -147.137
  N       96.502    1156.032    -147.375
  C       97.313    1153.788    -147.909
  C       97.218    1152.490    -147.605
  O      101.822    1148.770    -144.311
  O      100.478    1146.634    -144.795
  H       93.959    1149.716    -147.382
  H      101.599    1148.526    -143.393
  H       97.974    1154.164    -148.683
  H       97.810    1151.736    -148.122
  H       95.300    1150.528    -145.660
  H       96.575    1150.195    -148.437
  H       96.653    1147.832    -148.062
  H       97.318    1148.027    -145.315
  H       95.880    1156.627    -146.841
  H       99.004    1147.424    -146.933
  H       97.078    1156.460    -148.093
  H       98.960    1149.042    -147.682
  P       94.342    1146.794    -147.451
  C       95.666    1144.653    -146.815
  O       95.246    1145.531    -147.847
  O       94.153    1147.594    -148.819
  O       93.027    1146.460    -146.817
  H       93.239    1147.908    -148.902
  H       96.257    1143.866    -147.235
  H       94.808    1144.235    -146.331
  H       96.250    1145.195    -146.101

 6  7  8  9  10  11  12  13  14  15  16  26  30  31  32  33  35 0
 6-311+G(2d,p)
 ****
 37  38 0
 6-311+G(2d,p)
 ****
 1  2  3  4  5  17  18  19  20  21  22  23  24  25 0
 3-21G
 ****
 27  28  29  34  36  39  40  41  42  43  44  45  46 0
 3-21G
 ****


