%nproc=1
%NoSave
%Mem=1900MB
#P OB98/GEN NMR

erre ene a

0 1
  C      -19.491      44.035     -24.727
  O      -18.361      43.282     -24.339
  H      -19.151      44.980     -25.158
  H      -20.119      44.251     -23.859
  H      -20.067      43.490     -25.478
  P      -18.640      41.874     -23.623
  C      -19.620      39.595     -24.395
  O      -19.460      40.980     -24.672
  C      -20.766      39.036     -25.232
  O      -22.003      39.689     -24.870
  C      -20.611      39.263     -26.729
  O      -19.708      38.347     -27.321
  C      -22.042      39.068     -27.199
  O      -22.348      37.678     -27.395
  C      -22.860      39.656     -26.029
  N      -23.404      40.972     -26.345
  C      -24.783      41.029     -26.523
  O      -25.516      40.045     -26.427
  N      -25.294      42.253     -26.857
  C      -24.571      43.392     -27.062
  O      -25.082      44.441     -27.431
  C      -23.120      43.276     -26.845
  C      -22.609      42.088     -26.512
  O      -19.726      42.244     -22.507
  O      -17.437      41.211     -23.041
  H      -19.300      42.294     -21.632
  H      -23.280      37.643     -27.686
  H      -26.289      42.311     -27.001
  H      -22.517      44.164     -26.994
  H      -21.539      41.974     -26.367
  H      -23.700      38.995     -25.781
  H      -22.223      39.568     -28.151
  H      -20.312      40.300     -26.927
  H      -20.866      37.965     -25.012
  H      -19.853      39.460     -23.334
  H      -18.683      39.076     -24.619
  P      -19.045      38.727     -28.731
  C      -17.211      40.506     -29.338
  O      -18.305      40.134     -28.521
  O      -20.340      39.091     -29.593
  O      -18.190      37.648     -29.302
  H      -21.034      39.530     -29.072
  H      -16.858      41.472     -29.043
  H      -17.524      40.537     -30.361
  H      -16.424      39.790     -29.228

 6  7  8  9  10  11  12  13  14  15  16  27  31  32  33  34  35 0
 6-311+G(2d,p)
 ****
 36  37 0
 6-311+G(2d,p)
 ****
 1  2  3  4  5  17  18  19  20  21  22  23  24  25 0
 3-21G
 ****
 26  28  29  30  38  39  40  41  42  43  44  45 0
 3-21G
 ****


