%nproc=1
%NoSave
%Mem=1900MB
#P OB98/GEN NMR

erre ene a

0 1
  C     -899.160    -656.972    -896.610
  O     -898.750    -658.105    -897.300
  H     -899.480    -657.233    -895.590
  H     -900.000    -656.481    -897.110
  H     -898.330    -656.234    -896.500
  P     -897.930    -657.882    -898.650
  C     -895.740    -659.172    -898.150
  O     -896.330    -657.903    -898.280
  C     -894.280    -659.020    -897.690
  O     -893.590    -658.038    -898.540
  C     -894.150    -658.500    -896.220
  O     -893.050    -659.192    -895.590
  C     -893.840    -657.027    -896.380
  O     -893.130    -656.490    -895.270
  C     -893.000    -657.052    -897.680
  N     -891.330    -652.313    -897.320
  C     -891.050    -653.428    -896.530
  N     -890.220    -653.238    -895.490
  N     -891.560    -654.611    -896.750
  C     -892.350    -654.648    -897.840
  C     -892.730    -653.637    -898.700
  C     -892.170    -652.319    -898.430
  O     -892.380    -651.281    -899.060
  N     -893.590    -654.076    -899.680
  C     -893.750    -655.333    -899.440
  N     -893.010    -655.788    -898.320
  O     -898.200    -656.327    -899.000
  O     -898.320    -658.748    -899.810
  H     -892.360    -657.065    -895.090
  H     -898.700    -656.240    -899.830
  H     -890.920    -651.409    -897.100
  H     -894.380    -656.033    -900.000
  H     -891.960    -657.320    -897.510
  H     -894.750    -656.452    -896.510
  H     -889.730    -652.361    -895.320
  H     -895.080    -658.686    -895.630
  H     -889.950    -654.067    -894.940
  H     -893.740    -659.992    -897.790
  H     -895.720    -659.670    -899.130
  H     -896.290    -659.799    -897.420
  P     -893.370    -660.546    -894.790
  C     -891.930    -662.009    -896.330
  O     -893.200    -661.806    -895.760
  O     -895.020    -660.453    -894.560
  O     -892.700    -660.646    -893.460
  H     -895.200    -660.224    -893.650
  H     -891.953    -662.879    -896.953
  H     -891.208    -662.146    -895.552
  H     -891.663    -661.156    -896.918

 6  7  8  9  10  11  12  13  14  15  26  29  33  34 0
 6-311+G(2d,p)
 ****
 36  38  39  40  41 0
 6-311+G(2d,p)
 ****
 1  2  3  4  5  16  17  18  19  20  21  22  23  24  25 0
 3-21G
 ****
 27  28  30  31  32  35  37  42  43  44  45  46  47 0
 3-21G
 ****
 48  49 0
 3-21G
 ****


