%nproc=1
%NoSave
%Mem=1900MB
#P OB98/GEN NMR

erre ene a

0 1
  C     -250.458     216.140     -11.879
  O     -250.389     215.766     -13.239
  H     -251.072     215.409     -11.344
  H     -250.928     217.123     -11.783
  H     -249.462     216.157     -11.426
  P     -249.400     216.568     -14.214
  C     -248.276     216.060     -16.486
  O     -249.336     215.750     -15.590
  C     -247.896     214.826     -17.319
  O     -247.401     213.787     -16.415
  C     -249.068     214.214     -18.121
  O     -248.501     213.622     -19.303
  C     -249.559     213.155     -17.149
  O     -250.464     212.260     -17.738
  C     -248.207     212.608     -16.674
  N     -248.257     211.756     -15.487
  C     -248.884     210.519     -15.614
  O     -249.395     210.087     -16.646
  N     -248.918     209.756     -14.469
  C     -248.384     210.094     -13.257
  O     -248.418     209.352     -12.277
  C     -247.742     211.415     -13.190
  C     -247.707     212.168     -14.292
  O     -248.070     216.933     -13.636
  O     -250.243     217.872     -14.617
  H     -249.930     218.637     -14.098
  H     -250.637     211.519     -17.115
  H     -249.362     208.853     -14.539
  H     -247.321     211.723     -12.239
  H     -247.228     213.148     -14.275
  H     -247.721     212.060     -17.488
  H     -250.098     213.632     -16.322
  H     -249.824     214.954     -18.409
  H     -247.059     215.095     -17.985
  H     -247.412     216.381     -15.892
  H     -248.586     216.873     -17.141
  P     -248.288     214.420     -20.679
  C     -246.236     215.222     -22.042
  O     -246.749     214.270     -21.111
  O     -248.763     215.842     -20.640
  O     -249.081     213.578     -21.789
  H     -249.354     214.170     -22.513
  H     -245.207     215.007     -22.241
  H     -246.322     216.206     -21.630
  H     -246.795     215.167     -22.953

 6  7  8  9  10  11  12  13  14  15  16  27  31  32  33  34  35 0
 6-311+G(2d,p)
 ****
 36  37 0
 6-311+G(2d,p)
 ****
 1  2  3  4  5  17  18  19  20  21  22  23  24  25 0
 3-21G
 ****
 26  28  29  30  38  39  40  41  42  43  44  45 0
 3-21G
 ****


