%nproc=1
%NoSave
%Mem=1900MB
#P OB98/GEN NMR

erre ene a

0 1
  C      461.592     254.511      94.619
  O      461.151     253.296      94.005
  P      459.574     252.993      94.015
  C      458.961     253.740      91.593
  O      459.108     252.663      92.519
  C      458.529     253.200      90.224
  O      459.596     252.481      89.586
  C      457.376     252.209      90.309
  O      456.153     252.892      90.497
  C      457.486     251.493      88.971
  O      456.712     252.143      87.948
  C      458.996     251.571      88.648
  N      459.651     250.273      88.683
  C      459.113     249.292      87.840
  O      458.127     249.545      87.143
  N      459.687     248.044      87.836
  C      460.694     247.791      88.626
  N      461.217     246.537      88.578
  C      461.272     248.791      89.548
  C      460.703     249.997      89.527
  O      458.928     254.427      94.296
  O      459.160     251.984      95.043
  H      456.778     251.564      87.161
  H      458.111     254.334      94.816
  H      462.102     248.534      90.184
  H      461.065     250.792      90.168
  H      459.152     252.003      87.652
  H      457.116     250.463      89.043
  H      457.553     251.503      91.127
  H      458.250     254.057      89.589
  H      460.792     245.876      87.926
  H      459.905     254.281      91.503
  H      461.988     246.237      89.144
  H      458.228     254.448      91.988
  P      454.991     252.127      91.283
  C      455.165     253.891      93.142
  O      454.306     253.251      92.212
  O      455.809     251.271      92.352
  O      454.055     251.281      90.475
  H      455.218     250.678      92.843
  H      454.641     254.764      93.555
  H      456.080     254.238      92.655
  H      455.407     253.209      93.962
  H      462.657     254.584      94.541
  H      461.309     254.512      95.651
  H      461.140     255.345      94.124

 3  4  5  6  7  8  9  10  11  12  13  21  23  27  28  29  30  32 0
 6-311+G(2d,p)
 ****
 34  35 0
 6-311+G(2d,p)
 ****
 1  2  14  15  16  17  18  19  20  22  24  25  26 0
 3-21G
 ****
 31  33  36  37  38  39  40  41  42  43  44  45  46 0
 3-21G
 ****


