%nproc=1
%NoSave
%Mem=1900MB
#P OB98/GEN NMR

erre ene a

0 1
  C       73.110      59.801     -81.472
  O       73.891      59.627     -80.299
  P       74.774      60.870     -79.801
  C       76.885      62.101     -80.650
  O       75.946      61.060     -80.883
  C       77.366      62.704     -81.965
  O       76.237      63.327     -82.637
  C       78.457      63.775     -81.808
  O       79.467      63.570     -82.806
  C       77.735      65.069     -82.143
  O       78.627      66.071     -82.617
  C       76.732      64.567     -83.180
  N       74.764      67.666     -86.648
  C       75.739      66.698     -86.782
  N       76.307      66.581     -88.002
  N       76.125      65.916     -85.809
  C       75.449      66.124     -84.653
  C       74.458      67.044     -84.399
  C       74.083      67.944     -85.469
  O       73.292      68.880     -85.389
  N       74.001      66.942     -83.110
  C       74.714      65.966     -82.583
  N       75.641      65.470     -83.466
  O       75.530      60.278     -78.521
  O       74.008      62.099     -79.456
  H       79.392      66.084     -82.010
  H       75.348      60.838     -77.741
  H       74.516      68.252     -87.426
  H       74.619      65.609     -81.565
  H       77.239      64.346     -84.129
  H       77.234      65.444     -81.243
  H       76.031      67.125     -88.804
  H       78.919      63.803     -80.816
  H       77.008      65.861     -88.127
  H       77.713      61.890     -82.615
  H       77.744      61.696     -80.106
  H       76.411      62.874     -80.035
  P       80.971      63.923     -82.367
  C       82.074      66.003     -81.251
  O       80.937      65.449     -81.885
  O       81.758      63.980     -83.759
  O       81.568      62.946     -81.410
  H       82.708      63.802     -83.621
  H       82.941      65.339     -81.306
  H       81.839      66.190     -80.201
  H       82.324      66.951     -81.735
  H       72.578      58.897     -81.683
  H       73.751      60.038     -82.295
  H       72.413      60.599     -81.321

 3  4  5  6  7  8  9  10  11  12  23  26  30  31  33  0
 6-311+G(2d,p)
 ****
 35  36  37  38 0
 6-311+G(2d,p)
 ****
 1  2  13  14  15  16  17  18  19  20  21  22  24  25  27  28  29 0
 3-21G
 ****
 32  34  39  40  41  42  43  44  45  46  47  48  49 0
 3-21G
 ****


