%nproc=1
%NoSave
%Mem=1900MB
#P OB98/GEN NMR

erre ene a

0 1
  C     -151.484     105.195     105.951
  O     -152.651     104.617     105.402
  H     -151.663     106.262     106.109
  H     -150.649     105.081     105.256
  H     -151.233     104.738     106.912
  P     -152.758     103.020     105.321
  C     -153.774     102.725     102.969
  O     -154.008     102.693     104.369
  C     -154.633     103.801     102.300
  O     -156.021     103.345     102.288
  C     -154.606     105.164     103.023
  O     -154.760     106.179     102.023
  C     -155.846     105.058     103.890
  O     -156.225     106.304     104.415
  C     -156.803     104.392     102.899
  N     -158.011     103.862     103.520
  C     -159.179     103.882     102.767
  O     -159.243     104.297     101.612
  N     -160.301     103.412     103.397
  C     -160.364     102.941     104.675
  O     -161.392     102.511     105.183
  C     -159.102     102.972     105.431
  C     -157.999     103.423     104.829
  O     -152.756     102.303     106.629
  O     -151.503     102.603     104.418
  H     -150.767     102.322     104.993
  H     -157.113     106.246     104.829
  H     -161.157     103.419     102.865
  H     -159.123     102.626     106.455
  H     -157.052     103.462     105.355
  H     -157.085     105.089     102.103
  H     -155.656     104.403     104.745
  H     -153.681     105.333     103.579
  H     -154.325     103.903     101.254
  H     -154.026     101.742     102.557
  H     -152.713     102.926     102.785
  P     -153.537     106.755     101.157
  C     -153.730     109.059     102.298
  O     -153.655     108.354     101.068
  O     -153.386     106.098      99.823
  O     -152.231     106.516     102.051
  H     -151.479     106.299     101.469
  H     -153.805     110.109     102.104
  H     -152.850     108.865     102.875
  H     -154.592     108.735     102.843

 6  7  8  9  10  11  12  13  14  15  16  27  31  32  33  34  35 0
 6-311+G(2d,p)
 ****
 36  37 0
 6-311+G(2d,p)
 ****
 1  2  3  4  5  17  18  19  20  21  22  23  24  25 0
 3-21G
 ****
 26  28  29  30  38  39  40  41  42  43  44  45 0
 3-21G
 ****


