%nproc=1
%NoSave
%Mem=1900MB
#P OB98/GEN NMR

erre ene a

0 1
  C     -308.886     -38.976    -259.617
  O     -309.268     -38.154    -260.701
  H     -308.088     -38.470    -259.062
  H     -308.512     -39.937    -259.971
  H     -309.732     -39.126    -258.942
  P     -310.350     -38.721    -261.741
  C     -308.679     -40.115    -263.157
  O     -309.743     -40.136    -262.211
  C     -308.774     -41.329    -264.079
  O     -308.397     -42.538    -263.391
  C     -310.175     -41.613    -264.629
  O     -310.580     -40.707    -265.642
  C     -309.965     -43.023    -265.154
  O     -309.237     -42.975    -266.393
  C     -309.099     -43.644    -264.032
  N     -309.885     -44.384    -263.047
  C     -309.639     -45.761    -262.960
  O     -308.803     -46.297    -263.686
  N     -310.378     -46.514    -262.071
  C     -311.295     -45.944    -261.354
  N     -312.034     -46.743    -260.531
  C     -311.581     -44.494    -261.403
  C     -310.849     -43.783    -262.259
  O     -310.751     -37.800    -262.849
  O     -311.578     -39.188    -260.824
  H     -309.063     -43.899    -266.658
  H     -312.281     -39.538    -261.424
  H     -312.359     -44.074    -260.784
  H     -311.007     -42.717    -262.365
  H     -308.334     -44.308    -264.446
  H     -310.902     -43.556    -265.349
  H     -310.909     -41.646    -263.816
  H     -308.045     -41.185    -264.894
  H     -311.838     -47.735    -260.555
  H     -307.736     -40.112    -262.608
  H     -312.923     -46.434    -260.155
  H     -308.739     -39.209    -263.768
  P     -312.081     -40.136    -265.582
  C     -312.568     -41.547    -267.714
  O     -312.993     -41.155    -266.421
  O     -312.003     -38.834    -266.515
  O     -312.603     -39.830    -264.209
  H     -311.829     -38.033    -265.984
  H     -313.283     -42.223    -268.134
  H     -311.616     -42.031    -267.645
  H     -312.484     -40.683    -268.339

 6  7  8  9  10  11  12  13  14  15  16  26  30  31  32  33  35 0
 6-311+G(2d,p)
 ****
 37  38 0
 6-311+G(2d,p)
 ****
 1  2  3  4  5  17  18  19  20  21  22  23  24  25 0
 3-21G
 ****
 27  28  29  34  36  39  40  41  42  43  44  45  46 0
 3-21G
 ****


