%nproc=1
%NoSave
%Mem=1900MB
#P OB98/GEN NMR

erre ene a

0 1
  C     -126.776     135.962     444.832
  O     -127.495     134.859     445.340
  H     -126.199     136.409     445.648
  H     -127.459     136.715     444.436
  H     -126.080     135.637     444.052
  P     -128.476     134.058     444.357
  C     -127.809     131.824     445.468
  O     -128.877     132.695     445.107
  C     -128.306     130.763     446.459
  O     -128.730     131.451     447.666
  C     -129.496     129.962     445.914
  O     -129.295     128.552     445.986
  C     -130.687     130.552     446.670
  O     -131.782     129.674     446.813
  C     -130.062     131.021     447.991
  N     -130.805     132.097     448.646
  C     -131.599     131.756     449.734
  O     -131.714     130.622     450.199
  N     -132.289     132.792     450.317
  C     -132.267     134.095     449.914
  O     -132.902     134.981     450.474
  C     -131.433     134.388     448.735
  C     -130.750     133.395     448.166
  O     -127.983     133.880     442.961
  O     -129.837     134.903     444.396
  H     -131.434     128.833     447.180
  H     -129.932     135.408     443.566
  H     -132.851     132.560     451.115
  H     -131.405     135.412     448.384
  H     -130.126     133.577     447.296
  H     -129.989     130.193     448.698
  H     -131.047     131.427     446.116
  H     -129.634     130.145     444.844
  H     -127.464     130.114     446.727
  H     -127.020     132.429     445.919
  H     -127.415     131.334     444.569
  P     -129.574     127.527     444.797
  C     -127.332     126.186     445.081
  O     -128.757     126.182     445.072
  O     -129.497     128.089     443.414
  O     -131.105     127.064     445.043
  H     -131.482     126.888     444.153
  H     -126.974     125.198     445.281
  H     -126.982     126.853     445.841
  H     -126.970     126.510     444.128

 6  7  8  9  10  11  12  13  14  15  16  26  31  32  33  34  35 0
 6-311+G(2d,p)
 ****
 36  37 0
 6-311+G(2d,p)
 ****
 1  2  3  4  5  17  18  19  20  21  22  23  24  25 0
 3-21G
 ****
 27  28  29  30  38  39  40  41  42  43  44  45 0
 3-21G
 ****


