%nproc=1
%NoSave
%Mem=1900MB
#P OB98/GEN NMR

erre ene a

0 1
  C      250.142    -197.265     -90.735
  O      250.356    -198.586     -90.271
  P      249.941    -199.013     -88.788
  C      250.335    -201.554     -89.319
  O      250.573    -200.445     -88.480
  C      250.901    -202.814     -88.649
  O      252.328    -202.889     -88.857
  C      250.643    -202.814     -87.144
  O      249.460    -203.533     -86.840
  C      251.904    -203.458     -86.594
  O      251.823    -204.892     -86.695
  C      252.982    -202.911     -87.559
  N      253.530    -201.565     -87.301
  C      254.242    -201.325     -86.132
  O      254.480    -202.186     -85.286
  N      254.661    -200.030     -85.942
  C      254.479    -199.000     -86.821
  O      254.639    -197.816     -86.539
  C      253.967    -199.375     -88.142
  C      253.504    -200.612     -88.310
  O      248.377    -199.321     -88.926
  O      250.221    -197.999     -87.726
  H      251.504    -205.099     -87.590
  H      247.848    -198.559     -88.623
  H      255.058    -199.820     -85.033
  H      253.939    -198.621     -88.912
  H      253.085    -200.903     -89.272
  H      253.833    -203.597     -87.628
  H      252.028    -203.236     -85.537
  H      250.585    -201.786     -86.771
  H      250.447    -203.697     -89.112
  H      250.807    -201.394     -90.294
  H      249.259    -201.670     -89.490
  P      248.470    -202.989     -85.708
  C      246.204    -203.197     -86.889
  O      247.088    -203.766     -85.943
  O      248.362    -201.503     -85.610
  O      249.059    -203.633     -84.364
  H      249.625    -202.975     -83.903
  H      245.399    -203.907     -87.089
  H      246.730    -202.980     -87.824
  H      245.776    -202.277     -86.482
  H      250.485    -197.182     -91.745
  H      250.682    -196.578     -90.117
  H      249.097    -197.037     -90.693

 3  4  5  6  7  8  9  10  11  12  13  23  28  29  30  31  32 0
 6-311+G(2d,p)
 ****
 33  34 0
 6-311+G(2d,p)
 ****
 1  2  14  15  16  17  18  19  20  21  22  24  25  26  27 0
 3-21G
 ****
 35  36  37  38  39  40  41  42  43  44  45 0
 3-21G
 ****


