%nproc=1
%NoSave
%Mem=1900MB
#P OB98/GEN NMR

erre ene a

0 1
  C       72.948     -10.393     -84.354
  O       73.163      -9.401     -85.338
  H       72.264      -9.995     -83.601
  H       73.889     -10.660     -83.866
  H       72.495     -11.282     -84.801
  P       74.169      -9.724     -86.541
  C       76.719      -9.517     -86.894
  O       75.602      -9.166     -86.087
  C       77.993      -8.888     -86.338
  O       77.976      -7.461     -86.531
  C       78.205      -9.118     -84.843
  O       78.761     -10.400     -84.607
  C       79.177      -7.993     -84.525
  O       80.496      -8.350     -84.983
  C       78.618      -6.842     -85.382
  N       77.738      -2.233     -83.449
  C       78.908      -2.779     -83.941
  N       80.006      -1.995     -83.882
  N       78.996      -3.986     -84.435
  C       77.837      -4.679     -84.366
  C       76.619      -4.255     -83.885
  C       76.519      -2.893     -83.403
  O       75.495      -2.363     -82.981
  N       75.695      -5.268     -83.890
  C       76.339      -6.289     -84.423
  N       77.648      -5.986     -84.722
  O       73.741      -9.260     -87.900
  O       74.359     -11.311     -86.480
  H       80.826      -9.050     -84.390
  H       73.718     -11.765     -87.057
  H       77.732      -1.300     -83.074
  H       75.908      -7.263     -84.619
  H       79.411      -6.189     -85.761
  H       79.251      -7.786     -83.457
  H       80.034      -1.120     -83.380
  H       77.281      -8.959     -84.277
  H       80.884      -2.399     -84.184
  H       78.840      -9.280     -86.917
  H       76.522      -9.150     -87.906
  H       76.834     -10.605     -86.935
  P       78.158     -11.384     -83.489
  C       78.259     -11.456     -80.905
  O       78.584     -10.739     -82.083
  O       78.525     -12.818     -83.653
  O       76.587     -11.102     -83.520
  H       76.115     -11.631     -84.209
  H       78.601     -10.911     -80.050
  H       78.732     -12.415     -80.929
  H       77.198     -11.583     -80.846

 6  7  8  9  10  11  12  13  14  15  26  29  33  34 0
 6-311+G(2d,p)
 ****
 36  38  39  40  41 0
 6-311+G(2d,p)
 ****
 1  2  3  4  5  16  17  18  19  20  21  22  23  24  25 0
 3-21G
 ****
 27  28  30  31  32  35  37  42  43  44  45  46  47 0
 3-21G
 ****
 48  49 0
 3-21G
 ****


