%nproc=1
%NoSave
%Mem=1900MB
#P OB98/GEN NMR

erre ene a

0 1
  C      -82.968     -96.081      22.775
  O      -83.217     -94.686      22.966
  P      -82.358     -93.841      24.025
  C      -84.105     -93.345      25.832
  O      -82.940     -94.097      25.503
  C      -84.556     -93.528      27.289
  O      -84.841     -94.919      27.575
  C      -83.546     -93.050      28.342
  O      -84.324     -92.559      29.440
  C      -82.836     -94.340      28.712
  O      -82.153     -94.247      29.960
  C      -83.999     -95.339      28.669
  N      -83.545     -96.717      28.507
  C      -83.730     -97.577      29.592
  O      -84.204     -97.151      30.651
  N      -83.331     -98.888      29.475
  C      -82.704     -99.277      28.405
  N      -82.310    -100.578      28.358
  C      -82.410     -98.379      27.267
  C      -82.864     -97.127      27.382
  O      -82.179     -92.394      23.673
  O      -80.939     -94.590      24.051
  H      -81.764     -95.128      30.163
  H      -80.236     -93.940      24.255
  H      -81.864     -98.741      26.408
  H      -82.701     -96.399      26.599
  H      -84.599     -95.278      29.589
  H      -82.091     -94.589      27.946
  H      -82.861     -92.282      27.969
  H      -85.500     -92.982      27.408
  H      -82.509    -101.154      29.171
  H      -84.921     -93.655      25.164
  H      -81.718    -100.953      27.627
  H      -83.913     -92.284      25.632
  P      -84.532     -90.994      29.699
  C      -82.318     -90.823      30.982
  O      -83.071     -90.355      29.874
  O      -85.491     -90.659      30.796
  O      -85.025     -90.398      28.289
  H      -85.437     -89.529      28.437
  H      -81.284     -90.486      30.875
  H      -82.335     -91.918      31.027
  H      -82.735     -90.415      31.907
  H      -83.637     -96.464      22.033
  H      -83.122     -96.600      23.698
  H      -81.958     -96.222      22.451

 3  4  5  6  7  8  9  10  11  12  13  23  27  28  29  30  32 0
 6-311+G(2d,p)
 ****
 34  35 0
 6-311+G(2d,p)
 ****
 1  2  14  15  16  17  18  19  20  21  22  24  25  26 0
 3-21G
 ****
 31  33  36  37  38  39  40  41  42  43  44  45  46 0
 3-21G
 ****


