%nproc=1
%NoSave
%Mem=1900MB
#P OB98/GEN NMR

erre ene a

0 1
  C      384.711     143.196    -214.869
  O      383.727     142.833    -215.847
  P      382.150     142.975    -215.592
  C      381.576     140.460    -215.561
  O      381.395     141.709    -216.222
  C      381.055     139.293    -216.406
  O      382.075     138.834    -217.315
  C      380.639     138.063    -215.611
  O      379.385     138.259    -214.982
  C      380.647     136.992    -216.697
  O      379.428     137.016    -217.457
  C      381.842     137.434    -217.568
  N      383.038     136.640    -217.318
  C      383.675     136.098    -218.438
  O      383.193     136.250    -219.562
  N      384.827     135.376    -218.253
  C      385.264     135.152    -217.053
  N      386.415     134.436    -216.932
  C      384.574     135.628    -215.840
  C      383.479     136.359    -216.046
  O      381.584     144.292    -216.013
  O      381.967     142.771    -214.014
  H      379.538     136.360    -218.173
  H      381.199     143.294    -213.713
  H      384.953     135.395    -214.858
  H      382.917     136.757    -215.211
  H      381.587     137.357    -218.630
  H      380.755     135.982    -216.291
  H      381.408     137.827    -214.864
  H      380.214     139.664    -217.006
  H      386.869     134.131    -217.783
  H      381.029     140.493    -214.613
  H      386.841     134.209    -216.045
  H      382.643     140.327    -215.345
  P      379.294     138.307    -213.384
  C      377.570     136.418    -213.603
  O      377.907     137.633    -212.959
  O      379.576     139.632    -212.761
  O      380.371     137.217    -212.913
  H      380.749     137.498    -212.057
  H      376.860     135.874    -212.975
  H      378.455     135.798    -213.762
  H      377.099     136.639    -214.565
  H      385.689     143.014    -215.263
  H      384.568     142.611    -213.985
  H      384.610     144.234    -214.630

 3  4  5  6  7  8  9  10  11  12  13  23  27  28  29  30  32 0
 6-311+G(2d,p)
 ****
 34  35 0
 6-311+G(2d,p)
 ****
 1  2  14  15  16  17  18  19  20  21  22  24  25  26 0
 3-21G
 ****
 31  33  36  37  38  39  40  41  42  43  44  45  46 0
 3-21G
 ****


