%nproc=1
%NoSave
%Mem=1900MB
#P OB98/GEN NMR

erre ene a

0 1
  C     1466.107    -853.096     433.008
  O     1466.684    -852.027     433.708
  H     1466.770    -853.968     433.088
  H     1465.987    -852.858     431.962
  H     1465.141    -853.365     433.434
  P     1465.940    -850.602     433.686
  C     1466.265    -849.981     436.178
  O     1465.329    -850.365     435.167
  C     1466.085    -850.906     437.409
  O     1466.466    -852.258     437.018
  C     1466.970    -850.442     438.589
  O     1466.255    -850.300     439.805
  C     1468.089    -851.490     438.596
  O     1468.710    -851.697     439.839
  C     1467.424    -852.738     437.978
  N     1468.346    -853.667     437.354
  C     1469.184    -854.403     438.195
  O     1469.210    -854.316     439.425
  N     1470.050    -855.258     437.561
  C     1470.179    -855.438     436.209
  O     1470.978    -856.208     435.719
  C     1469.259    -854.635     435.399
  C     1468.417    -853.779     435.987
  O     1464.969    -850.403     432.563
  O     1467.135    -849.530     433.634
  H     1468.910    -850.837     440.204
  H     1467.214    -849.203     432.718
  H     1470.663    -855.782     438.169
  H     1469.326    -854.760     434.303
  H     1467.734    -853.156     435.401
  H     1466.868    -853.285     438.751
  H     1468.863    -851.142     437.897
  H     1467.409    -849.460     438.412
  H     1465.024    -850.919     437.698
  H     1466.045    -848.960     436.444
  H     1467.286    -850.067     435.812
  P     1465.151    -849.141     440.051
  C     1462.994    -850.096     441.181
  O     1463.722    -849.815     439.993
  O     1465.370    -847.871     439.278
  O     1465.348    -848.799     441.633
  H     1465.161    -847.818     441.708
  H     1462.058    -850.548     440.927
  H     1462.817    -849.186     441.715
  H     1463.559    -850.765     441.796

 6  7  8  9  10  11  12  13  14  15  16  26  31  32  33  34  35 0
 6-311+G(2d,p)
 ****
 36  37 0
 6-311+G(2d,p)
 ****
 1  2  3  4  5  17  18  19  20  21  22  23  24  25 0
 3-21G
 ****
 27  28  29  30  38  39  40  41  42  43  44  45 0
 3-21G
 ****


