%nproc=1
%NoSave
%Mem=1900MB
#P OB98/GEN NMR

erre ene a

0 1
  C      136.633    -209.759    -325.273
  O      135.817    -210.909    -325.502
  P      136.531    -212.348    -325.424
  C      137.159    -212.431    -327.964
  O      137.608    -212.370    -326.618
  C      138.294    -212.047    -328.926
  O      137.835    -212.211    -330.309
  C      138.808    -210.611    -328.769
  O      140.223    -210.651    -328.996
  C      138.111    -209.874    -329.907
  O      138.797    -208.678    -330.261
  C      138.102    -210.963    -330.981
  N      137.123    -210.703    -332.041
  C      137.599    -210.142    -333.222
  O      138.769    -209.789    -333.369
  N      136.671    -209.947    -334.209
  C      135.326    -210.187    -334.105
  O      134.542    -209.999    -335.025
  C      134.866    -210.676    -332.792
  C      135.775    -210.907    -331.838
  O      135.360    -213.311    -325.928
  O      137.073    -212.658    -324.062
  H      134.812    -212.922    -326.630
  H      138.275    -208.197    -330.934
  H      137.003    -209.572    -335.085
  H      133.801    -210.825    -332.657
  H      135.460    -211.245    -330.856
  H      139.093    -211.047    -331.451
  H      137.094    -209.613    -329.606
  H      138.599    -210.195    -327.786
  H      139.116    -212.759    -328.777
  H      136.328    -211.739    -328.110
  H      136.782    -213.442    -328.173
  P      141.201    -210.196    -327.796
  C      141.418    -207.653    -328.405
  O      140.916    -208.643    -327.525
  O      142.602    -210.177    -328.566
  O      141.201    -211.099    -326.604
  H      142.561    -209.721    -329.429
  H      140.930    -206.705    -328.184
  H      141.227    -207.917    -329.450
  H      142.499    -207.536    -328.246
  H      136.035    -208.875    -325.354
  H      137.417    -209.727    -326.000
  H      137.058    -209.813    -324.293

 3  4  5  6  7  8  9  10  11  12  13  24  28  29  30  31  32 0
 6-311+G(2d,p)
 ****
 33  34 0
 6-311+G(2d,p)
 ****
 1  2  14  15  16  17  18  19  20  21  22  23  25  26  27 0
 3-21G
 ****
 35  36  37  38  39  40  41  42  43  44  45 0
 3-21G
 ****


