%nproc=1
%NoSave
%Mem=1900MB
#P OB98/GEN NMR

erre ene a

0 1
  C       57.225     165.485     -76.586
  O       56.961     164.197     -77.122
  P       55.505     163.566     -76.868
  C       54.235     162.664     -74.776
  O       55.469     163.112     -75.328
  C       54.490     161.720     -73.609
  O       55.126     160.504     -74.060
  C       55.422     162.283     -72.543
  O       54.747     163.153     -71.644
  C       55.847     161.010     -71.824
  O       54.821     160.596     -70.904
  C       55.962     160.011     -72.984
  N       60.244     157.354     -72.479
  C       58.984     157.108     -71.967
  N       58.863     156.034     -71.154
  N       57.936     157.847     -72.229
  C       58.207     158.892     -73.047
  C       59.412     159.238     -73.619
  C       60.567     158.420     -73.313
  O       61.717     158.616     -73.694
  N       59.290     160.357     -74.399
  C       58.019     160.691     -74.302
  N       57.329     159.859     -73.459
  O       55.561     162.176     -77.659
  O       54.368     164.420     -77.317
  H       54.125     160.162     -71.438
  H       54.656     161.835     -77.803
  H       61.021     156.760     -72.244
  H       57.559     161.533     -74.810
  H       55.586     159.019     -72.708
  H       56.766     161.138     -71.244
  H       59.648     155.465     -70.864
  H       56.302     162.762     -72.992
  H       57.971     155.869     -70.711
  H       53.519     161.451     -73.172
  H       53.664     162.146     -75.553
  H       53.654     163.533     -74.447
  P       55.536     164.484     -71.202
  C       57.861     164.890     -70.109
  O       56.834     163.964     -70.415
  O       54.600     165.087     -70.051
  O       55.778     165.458     -72.305
  H       54.726     166.054     -69.984
  H       58.522     164.444     -69.360
  H       57.450     165.818     -69.706
  H       58.445     165.106     -71.007
  H       58.225     165.775     -76.831
  H       57.112     165.459     -75.522
  H       56.537     166.192     -77.000

 3  4  5  6  7  8  9  10  11  12  23  26  30  31 0
 6-311+G(2d,p)
 ****
 33  35  36  37  38 0
 6-311+G(2d,p)
 ****
 1  2  13  14  15  16  17  18  19  20  21  22  24  25 0
 3-21G
 ****
 27  28  29  32  34  39  40  41  42  43  44  45  46  47  48  49 0
 3-21G
 ****


