%nproc=1
%NoSave
%Mem=1900MB
#P OB98/GEN NMR

erre ene a

0 1
  C     -405.003    -891.251     403.281
  O     -405.037    -891.611     404.651
  H     -404.219    -890.501     403.132
  H     -405.964    -890.821     402.979
  H     -404.772    -892.131     402.668
  P     -406.121    -892.721     405.071
  C     -404.202    -894.051     406.228
  O     -405.498    -893.481     406.332
  C     -403.641    -894.371     407.614
  O     -403.221    -893.131     408.249
  C     -404.657    -895.031     408.564
  O     -403.923    -895.861     409.486
  C     -405.224    -893.821     409.295
  O     -405.939    -894.211     410.443
  C     -403.930    -893.031     409.498
  N     -403.230    -889.451     413.082
  C     -402.823    -890.741     413.004
  N     -403.037    -891.621     412.019
  C     -403.737    -891.061     411.007
  C     -404.211    -889.761     410.943
  C     -403.934    -888.931     412.043
  N     -404.354    -887.621     412.131
  N     -404.885    -889.541     409.750
  C     -404.820    -890.701     409.115
  N     -404.146    -891.641     409.849
  O     -406.025    -893.791     403.885
  O     -407.514    -892.221     405.264
  H     -406.386    -893.441     410.854
  H     -406.706    -893.611     403.219
  H     -402.260    -891.101     413.862
  H     -405.246    -890.901     408.146
  H     -403.303    -893.481     410.282
  H     -405.924    -893.271     408.658
  H     -405.406    -895.631     408.045
  H     -402.742    -894.991     407.502
  H     -403.549    -893.341     405.718
  H     -404.254    -894.971     405.633
  H     -404.127    -887.101     412.961
  H     -404.893    -887.231     411.373
  P     -404.744    -896.841     410.463
  C     -403.946    -899.131     409.469
  O     -403.949    -898.231     410.577
  O     -406.000    -897.241     409.558
  O     -405.199    -896.241     411.760
  H     -406.771    -897.461     410.137
  H     -403.373    -900.000     409.717
  H     -403.512    -898.648     408.618
  H     -404.951    -899.420     409.241

 6  7  8  9  10  11  12  13  14  15  25  28  32  33  34  35 0
 6-311+G(2d,p)
 ****
 36  37  40 0
 6-311+G(2d,p)
 ****
 1  2  3  4  5  16  17  18  19  20  21  22  23  24 0
 3-21G
 ****
 26  27  29  30  31  38  39 41  42  43  44  45  46  47  48 0
 3-21G
 ****


