%nproc=1
%NoSave
%Mem=1900MB
#P OB98/GEN NMR

erre ene a

0 1
  C     -121.292      67.236      11.057
  O     -122.373      67.468      11.970
  P     -122.848      68.947      12.370
  C     -122.133      68.687      14.831
  O     -121.987      69.442      13.631
  C     -121.734      69.504      16.065
  O     -120.332      69.833      16.030
  C     -122.475      70.829      16.212
  O     -123.775      70.621      16.731
  C     -121.529      71.598      17.131
  O     -121.732      71.209      18.500
  C     -120.156      71.127      16.638
  N     -118.674      75.963      15.892
  C     -119.225      75.342      16.957
  N     -119.597      74.049      17.077
  C     -119.322      73.372      15.949
  C     -118.766      73.872      14.782
  C     -118.435      75.238      14.774
  N     -117.888      75.871      13.684
  N     -118.660      72.882      13.828
  C     -119.128      71.798      14.417
  N     -119.540      72.044      15.697
  O     -124.325      69.089      12.544
  O     -122.327      69.878      11.176
  H     -121.095      71.708      19.042
  H     -122.908      70.657      11.090
  H     -119.391      75.967      17.830
  H     -119.185      70.819      13.959
  H     -119.453      70.989      17.468
  H     -121.672      72.681      17.074
  H     -122.530      71.337      15.242
  H     -121.899      68.875      16.949
  H     -121.495      67.798      14.759
  H     -117.709      76.861      13.748
  H     -117.750      75.348      12.831
  H     -123.177      68.367      14.918
  P     -125.059      71.033      15.869
  C     -124.949      73.515      16.507
  O     -124.877      72.572      15.455
  O     -126.379      70.691      16.474
  O     -124.842      70.269      14.477
  H     -125.711      70.062      14.085
  H     -125.998      73.706      16.753
  H     -124.487      74.448      16.173
  H     -124.423      73.155      17.394
  H     -121.147      66.183      10.936
  H     -120.397      67.677      11.444
  H     -121.525      67.675      10.110

 3  4  5  6  7  8  9  10  11  12  22  25  29  30  31  32 0
 6-311+G(2d,p)
 ****
 33  36  37 0
 6-311+G(2d,p)
 ****
 1  2  13  14  15  16  17  18  19  20  21  23  24  26 0
 3-21G
 ****
 27  28  34  35  38  39  40  41  42  43  44  45  46  47  48 0
 3-21G
 ****


