%nproc=1
%NoSave
%Mem=1900MB
#P OB98/GEN NMR

erre ene a

0 1
  C       89.808     147.303    -100.918
  O       89.059     146.270    -100.306
  P       88.010     146.599     -99.145
  C       85.965     148.124     -98.922
  O       87.213     147.926     -99.575
  C       85.754     149.596     -98.562
  O       86.735     149.983     -97.559
  C       85.896     150.572     -99.739
  O       84.973     151.639     -99.504
  C       87.318     151.084     -99.582
  O       87.539     152.321    -100.248
  C       87.414     151.154     -98.062
  N       91.434     154.105     -96.934
  C       90.216     154.398     -97.437
  N       89.209     153.553     -97.734
  C       89.555     152.285     -97.456
  C       90.768     151.829     -96.969
  C       91.738     152.808     -96.684
  N       92.971     152.530     -96.137
  N       90.761     150.449     -96.871
  C       89.566     150.086     -97.290
  N       88.782     151.165     -97.593
  O       88.577     146.635     -97.765
  O       86.905     145.451     -99.284
  H       88.493     152.524    -100.212
  H       87.005     144.803     -98.558
  H       90.024     155.452     -97.621
  H       89.221     149.067     -97.395
  H       86.910     152.039     -97.656
  H       88.021     150.348     -99.992
  H       85.719     150.116    -100.718
  H       84.765     149.696     -98.099
  H       85.962     147.526     -98.006
  H       93.533     153.315     -95.852
  H       93.120     151.622     -95.700
  H       85.149     147.775     -99.565
  P       84.394     152.482    -100.739
  C       82.995     151.896    -102.799
  O       83.909     151.417    -101.829
  O       85.287     153.563    -101.250
  O       83.014     153.076    -100.172
  H       82.724     153.819    -100.734
  H       81.988     151.909    -102.375
  H       83.009     151.226    -103.662
  H       83.262     152.905    -103.129
  H       90.449     146.884    -101.665
  H       90.400     147.801    -100.178
  H       89.141     148.005    -101.373

 3  4  5  6  7  8  9  10  11  12  22  25  29  30  31  32 0
 6-311+G(2d,p)
 ****
 33  36  37 0
 6-311+G(2d,p)
 ****
 1  2  13  14  15  16  17  18  19  20  21  23  24  26 0
 3-21G
 ****
 27  28  34  35  38  39  40  41  42  43  44  45  46  47  48 0
 3-21G
 ****


