%nproc=1
%NoSave
%Mem=1900MB
#P OB98/GEN NMR

erre ene a

0 1
  C     -389.460    -172.172     -12.125
  O     -390.130    -171.142     -12.826
  H     -389.455    -171.923     -11.061
  H     -388.426    -172.259     -12.474
  H     -389.983    -173.121     -12.266
  P     -390.215    -171.297     -14.421
  C     -390.412    -168.744     -14.709
  O     -391.041    -170.005     -14.902
  C     -391.462    -167.643     -14.542
  O     -392.109    -167.426     -15.822
  C     -392.551    -167.990     -13.523
  O     -392.905    -166.814     -12.796
  C     -393.722    -168.426     -14.388
  O     -394.976    -168.247     -13.734
  C     -393.527    -167.561     -15.633
  N     -397.909    -169.350     -17.537
  C     -397.624    -168.686     -16.396
  N     -396.427    -168.230     -15.973
  C     -395.472    -168.481     -16.887
  C     -395.612    -169.151     -18.091
  C     -396.903    -169.604     -18.406
  N     -397.196    -170.307     -19.552
  N     -394.393    -169.249     -18.731
  C     -393.532    -168.637     -17.935
  N     -394.139    -168.172     -16.800
  O     -390.729    -172.607     -14.918
  O     -388.721    -170.936     -14.863
  H     -395.095    -167.291     -13.556
  H     -388.385    -170.156     -14.382
  H     -398.468    -168.501     -15.734
  H     -392.472    -168.520     -18.127
  H     -393.964    -166.561     -15.519
  H     -393.620    -169.489     -14.634
  H     -392.242    -168.774     -12.831
  H     -390.954    -166.710     -14.279
  H     -389.767    -168.508     -15.561
  H     -398.155    -170.585     -19.707
  H     -396.464    -170.490     -20.223
  H     -389.790    -168.812     -13.809
  P     -392.372    -166.658     -11.294
  C     -394.382    -165.405     -10.261
  O     -393.014    -165.328     -10.658
  O     -390.903    -166.816     -11.099
  O     -393.176    -167.819     -10.523
  H     -392.589    -168.214      -9.850
  H     -394.689    -164.463      -9.856
  H     -394.495    -166.167      -9.518
  H     -394.987    -165.643     -11.111

 6  7  8  9  10  11  12  13  14  15  25  28  32  33  34  35 0
 6-311+G(2d,p)
 ****
 36  39  40 0
 6-311+G(2d,p)
 ****
 1  2  3  4  5  16  17  18  19  20  21  22  23  24 0
 3-21G
 ****
 26  27  29  30  31  37  38  41  42  43  44  45  46  47 0
 3-21G
 ****
 48 0
 3-21G
 ****


