%nproc=1
%NoSave
%Mem=1900MB
#P OB98/GEN NMR

erre ene a

0 1
  C      432.981     205.820     694.039
  O      432.811     206.037     692.650
  P      431.468     206.781     692.173
  C      430.039     204.707     691.476
  O      430.807     205.838     691.048
  C      429.573     203.915     690.261
  O      428.405     204.530     689.672
  C      430.585     203.825     689.125
  O      431.563     202.819     689.360
  C      429.697     203.424     687.962
  O      429.412     202.019     688.006
  C      428.425     204.240     688.247
  N      425.856     206.829     684.739
  C      425.516     205.664     685.407
  N      424.356     205.079     685.045
  N      426.247     205.122     686.349
  C      427.385     205.823     686.613
  C      427.828     206.993     686.024
  C      427.016     207.559     684.983
  O      427.279     208.560     684.313
  N      429.015     207.395     686.552
  C      429.309     206.484     687.466
  N      428.365     205.481     687.500
  O      432.007     208.024     691.335
  O      430.568     207.205     693.276
  H      428.988     201.795     687.154
  H      431.313     208.689     691.225
  H      425.252     207.209     684.026
  H      430.186     206.484     688.100
  H      427.511     203.663     688.017
  H      430.160     203.633     686.992
  H      423.785     205.413     684.285
  H      431.040     204.799     688.934
  H      424.109     204.189     685.465
  H      429.298     202.906     690.612
  H      429.182     205.054     692.050
  H      430.666     204.085     692.121
  P      433.042     203.326     689.770
  C      433.639     203.768     687.280
  O      433.943     203.081     688.478
  O      433.531     202.212     690.818
  O      433.082     204.709     690.351
  H      434.187     202.588     691.426
  H      434.488     203.689     686.607
  H      433.452     204.831     687.480
  H      432.765     203.318     686.805
  H      433.911     205.319     694.211
  H      432.178     205.216     694.407
  H      432.983     206.760     694.549

 3  4  5  6  7  8  9  10  11  12  23  26  30  31 0
 6-311+G(2d,p)
 ****
 33  35  36  37  38 0
 6-311+G(2d,p)
 ****
 1  2  13  14  15  16  17  18  19  20  21  22  24  25 0
 3-21G
 ****
 27  28  29  32  34  39  40  41  42  43  44  45  46  47  48  49 0
 3-21G
 ****


