%nproc=1
%NoSave
%Mem=1900MB
#P OB98/GEN NMR

erre ene a

0 1
  C      -37.977     168.692      26.094
  O      -37.383     167.753      25.188
  P      -37.015     166.250      25.608
  C      -37.866     165.389      23.329
  O      -36.811     165.365      24.289
  C      -37.326     165.432      21.896
  O      -36.458     166.567      21.715
  C      -36.498     164.220      21.489
  O      -37.326     163.101      21.220
  C      -35.753     164.768      20.276
  O      -36.570     164.710      19.095
  C      -35.498     166.230      20.694
  N      -34.132     166.453      21.150
  C      -33.125     166.331      20.188
  O      -33.400     165.993      19.035
  N      -31.825     166.570      20.565
  C      -31.552     166.831      21.805
  N      -30.248     167.066      22.117
  C      -32.573     166.880      22.866
  C      -33.829     166.686      22.472
  O      -37.956     165.650      26.603
  O      -35.539     166.340      26.225
  H      -36.937     163.806      19.058
  H      -35.437     165.654      26.910
  H      -32.299     167.073      23.891
  H      -34.643     166.712      23.185
  H      -35.701     166.908      19.854
  H      -34.836     164.212      20.060
  H      -35.777     163.980      22.279
  H      -38.184     165.554      21.220
  H      -29.572     167.032      21.365
  H      -38.475     166.282      23.512
  H      -29.928     167.280      23.049
  H      -38.492     164.502      23.472
  P      -37.326     161.855      22.225
  C      -39.705     160.933      21.923
  O      -38.330     160.756      21.632
  O      -37.526     162.186      23.667
  O      -35.891     161.179      21.990
  H      -35.593     160.772      22.825
  H      -40.295     160.403      21.172
  H      -39.977     161.995      21.907
  H      -39.924     160.516      22.910
  H      -38.130     169.624      25.592
  H      -37.327     168.840      26.931
  H      -38.917     168.312      26.435

 3  4  5  6  7  8  9  10  11  12  13  23  27  28  29  30  32 0
 6-311+G(2d,p)
 ****
 34  35 0
 6-311+G(2d,p)
 ****
 1  2  14  15  16  17  18  19  20  21  22  24  25  26 0
 3-21G
 ****
 31  33  36  37  38  39  40  41  42  43  44  45  46 0
 3-21G
 ****


