%nproc=1
%NoSave
%Mem=1900MB
#P OB98/GEN NMR

erre ene a

0 1
  C     -289.957     -71.196     425.030
  O     -290.666     -70.133     425.648
  P     -291.948     -70.415     426.572
  C     -293.439     -68.852     425.157
  O     -293.214     -70.176     425.617
  C     -293.903     -68.878     423.696
  O     -292.986     -69.673     422.916
  C     -295.278     -69.506     423.487
  O     -296.309     -68.610     423.874
  C     -295.215     -69.845     422.002
  O     -295.466     -68.670     421.209
  C     -293.741     -70.280     421.835
  N     -293.577     -71.732     421.827
  C     -293.846     -72.378     420.615
  O     -294.195     -71.745     419.620
  N     -293.681     -73.738     420.545
  C     -293.301     -74.402     421.600
  N     -293.089     -75.741     421.458
  C     -293.062     -73.767     422.905
  C     -293.213     -72.442     422.948
  O     -291.979     -69.651     427.853
  O     -291.955     -72.003     426.772
  H     -294.815     -68.001     421.491
  H     -291.425     -72.311     427.546
  H     -292.761     -74.363     423.757
  H     -293.031     -71.897     423.864
  H     -293.328     -69.867     420.906
  H     -295.933     -70.615     421.698
  H     -295.370     -70.427     424.073
  H     -293.887     -67.852     423.309
  H     -293.096     -76.097     420.507
  H     -292.495     -68.293     425.218
  H     -292.531     -76.262     422.117
  H     -294.182     -68.365     425.798
  P     -297.310     -69.078     425.035
  C     -299.326     -68.363     423.563
  O     -298.704     -69.398     424.311
  O     -297.583     -67.731     425.850
  O     -296.775     -70.169     425.905
  H     -297.044     -67.713     426.665
  H     -300.117     -68.801     422.950
  H     -298.598     -67.874     422.901
  H     -299.767     -67.628     424.237
  H     -289.142     -70.798     424.462
  H     -290.616     -71.734     424.381
  H     -289.579     -71.857     425.782

 3  4  5  6  7  8  9  10  11  12  13  23  27  28  29  30  32 0
 6-311+G(2d,p)
 ****
 34  35 0
 6-311+G(2d,p)
 ****
 1  2  14  15  16  17  18  19  20  21  22  24  25  26 0
 3-21G
 ****
 31  33  36  37  38  39  40  41  42  43  44  45  46 0
 3-21G
 ****


