%nproc=1
%NoSave
%Mem=1900MB
#P OB98/GEN NMR

erre ene a

0 1
  C     -151.434       5.242    -259.688
  O     -150.642       6.357    -260.052
  H     -151.348       4.479    -260.466
  H     -152.484       5.538    -259.598
  H     -151.082       4.823    -258.740
  P     -150.687       7.615    -259.057
  C     -152.689       8.567    -260.398
  O     -152.183       8.194    -259.124
  C     -153.162      10.020    -260.380
  O     -153.585      10.435    -261.697
  C     -154.328      10.289    -259.437
  O     -153.873      10.493    -258.111
  C     -154.925      11.546    -260.052
  O     -154.172      12.718    -259.668
  C     -154.768      11.271    -261.556
  N     -159.655      11.776    -262.720
  C     -158.821      12.609    -262.007
  N     -159.370      13.736    -261.499
  N     -157.554      12.363    -261.792
  C     -157.149      11.176    -262.305
  C     -157.882      10.260    -263.028
  C     -159.269      10.575    -263.304
  O     -160.037       9.918    -263.999
  N     -157.111       9.182    -263.391
  C     -155.930       9.430    -262.861
  N     -155.904      10.625    -262.183
  O     -149.826       8.729    -259.825
  O     -150.148       7.368    -257.687
  H     -154.475      13.478    -260.195
  H     -149.307       9.230    -259.169
  H     -160.614      12.033    -262.879
  H     -155.064       8.789    -262.941
  H     -154.580      12.191    -262.122
  H     -155.948      11.715    -259.716
  H     -160.368      13.833    -261.381
  H     -155.067       9.479    -259.482
  H     -158.773      14.307    -260.915
  H     -152.299      10.642    -260.110
  H     -153.529       7.914    -260.652
  H     -151.901       8.444    -261.149
  P     -154.818      10.027    -256.903
  C     -155.946      12.317    -256.428
  O     -156.109      10.983    -256.888
  O     -153.994      10.489    -255.606
  O     -155.103       8.562    -256.866
  H     -153.591       9.708    -255.180
  H     -156.885      12.828    -256.476
  H     -155.233      12.823    -257.045
  H     -155.597      12.305    -255.417

 6  7  8  9  10  11  12  13  14  15  26  29  33  34 0
 6-311+G(2d,p)
 ****
 36  38  39  40  41 0
 6-311+G(2d,p)
 ****
 1  2  3  4  5  16  17  18  19  20  21  22  23  24  25 0
 3-21G
 ****
 27  28  30  31  32  35  37  42  43  44  45  46  47 0
 3-21G
 ****
 48  49 0
 3-21G
 ****


