%nproc=1
%NoSave
%Mem=1900MB
#P OB98/GEN NMR

erre ene a

0 1
  C      163.586     315.285    1549.150
  O      164.071     313.950    1549.189
  P      163.033     312.727    1549.324
  C      162.840     312.659    1551.873
  O      163.328     312.010    1550.720
  C      162.728     311.670    1553.044
  O      161.581     310.810    1552.869
  C      163.934     310.742    1553.166
  O      165.049     311.409    1553.763
  C      163.347     309.615    1554.025
  O      163.368     309.983    1555.436
  C      161.918     309.545    1553.510
  N      159.034     305.465    1552.441
  C      159.100     306.258    1553.534
  N      159.916     307.309    1553.748
  C      160.753     307.475    1552.714
  C      160.842     306.737    1551.543
  C      159.887     305.686    1551.423
  N      159.777     304.900    1550.288
  N      161.848     307.193    1550.731
  C      162.379     308.225    1551.394
  N      161.713     308.461    1552.565
  O      162.947     311.825    1548.134
  O      161.623     313.453    1549.577
  H      162.789     309.372    1555.906
  H      161.009     313.217    1548.858
  H      158.385     306.050    1554.321
  H      163.215     308.800    1551.046
  H      161.187     309.410    1554.329
  H      163.917     308.689    1553.935
  H      164.216     310.337    1552.186
  H      162.574     312.241    1553.976
  H      161.850     313.070    1551.658
  H      158.990     304.280    1550.243
  H      160.194     305.236    1549.433
  H      163.495     313.492    1552.141
  P      166.292     311.844    1552.846
  C      167.537     309.703    1553.510
  O      167.582     311.120    1553.459
  O      166.448     313.313    1552.614
  O      166.052     311.044    1551.477
  H      166.414     311.570    1550.736
  H      166.918     309.388    1554.366
  H      168.545     309.327    1553.654
  H      167.138     309.295    1552.591
  H      164.410     315.961    1549.059
  H      163.050     315.496    1550.051
  H      162.933     315.403    1548.311

 3  4  5  6  7  8  9  10  11  12  22  25  29  30  31  32 0
 6-311+G(2d,p)
 ****
 33  36  37 0
 6-311+G(2d,p)
 ****
 1  2  13  14  15  16  17  18  19  20  21  23  24  26 0
 3-21G
 ****
 27  28  34  35  38  39  40  41  42  43  44  45  46  47  48 0
 3-21G
 ****


