%nproc=1
%NoSave
%Mem=1900MB
#P OB98/GEN NMR

erre ene a

0 1
  C      712.239    -898.740    -586.530
  O      712.112    -897.870    -585.420
  H      712.201    -899.780    -586.196
  H      711.405    -898.560    -587.213
  H      713.176    -898.550    -587.056
  P      713.238    -898.010    -584.285
  C      714.272    -895.770    -585.094
  O      714.501    -897.140    -584.785
  C      715.560    -895.120    -585.585
  O      716.559    -895.240    -584.534
  C      716.142    -895.760    -586.861
  O      716.440    -894.750    -587.834
  C      717.445    -896.390    -586.404
  O      718.464    -896.340    -587.390
  C      717.800    -895.570    -585.170
  N      722.664    -896.390    -583.876
  C      722.072    -895.370    -584.531
  N      720.763    -895.160    -584.763
  C      720.025    -896.130    -584.198
  C      720.476    -897.230    -583.484
  C      721.874    -897.350    -583.342
  N      722.472    -898.420    -582.723
  N      719.419    -898.020    -583.066
  C      718.344    -897.430    -583.565
  N      718.667    -896.300    -584.267
  O      713.742    -899.520    -584.440
  O      712.765    -897.720    -582.899
  H      718.582    -895.400    -587.642
  H      713.568    -900.000    -583.605
  H      722.753    -894.610    -584.940
  H      717.332    -897.810    -583.486
  H      718.297    -894.630    -585.438
  H      717.255    -897.440    -586.146
  H      715.469    -896.510    -587.300
  H      715.377    -894.050    -585.737
  H      713.921    -895.240    -584.194
  H      723.481    -898.490    -582.773
  H      721.892    -899.190    -582.425
  H      713.487    -895.710    -585.866
  P      715.224    -894.300    -588.789
  C      715.292    -891.740    -588.318
  O      714.572    -892.960    -588.165
  O      714.113    -895.420    -588.518
  O      715.581    -894.220    -590.228
  H      713.858    -895.840    -589.354
  H      714.745    -890.943    -587.859
  H      715.422    -891.531    -589.359
  H      716.250    -891.830    -587.850

 6  7  8  9  10  11  12  13  14  15  25  28  32  33  34  35 0
 6-311+G(2d,p)
 ****
 36  39  40 0
 6-311+G(2d,p)
 ****
 1  2  3  4  5  16  17  18  19  20  21  22  23  24 0
 3-21G
 ****
 26  27  29  30  31  37  38  41  42  43  44  45  46  47  48 0
 3-21G
 ****


