%nproc=1
%NoSave
%Mem=1900MB
#P OB98/GEN NMR

erre ene a

0 1
  C      259.755     -21.223    -201.832
  O      259.762     -22.290    -200.904
  H      260.426     -21.472    -202.658
  H      260.115     -20.307    -201.350
  H      258.747     -21.065    -202.227
  P      258.714     -22.205    -199.696
  C      260.326     -21.576    -197.721
  O      259.307     -21.165    -198.622
  C      260.818     -20.382    -196.906
  O      261.318     -19.335    -197.762
  C      259.726     -19.698    -196.097
  O      259.296     -20.467    -194.999
  C      260.435     -18.407    -195.713
  O      261.332     -18.619    -194.614
  C      261.224     -18.095    -197.010
  N      260.609     -17.033    -197.796
  C      261.489     -16.084    -198.333
  O      262.701     -16.184    -198.140
  N      260.970     -15.032    -199.048
  C      259.688     -14.951    -199.234
  N      259.234     -13.882    -199.944
  C      258.727     -15.939    -198.705
  C      259.251     -16.940    -198.001
  O      258.906     -23.615    -198.967
  O      257.305     -21.900    -200.093
  H      261.753     -17.757    -194.434
  H      259.827     -23.808    -198.728
  H      257.668     -15.835    -198.894
  H      258.617     -17.710    -197.580
  H      262.249     -17.789    -196.771
  H      259.732     -17.628    -195.407
  H      258.880     -19.437    -196.749
  H      261.641     -20.721    -196.264
  H      259.921     -13.213    -200.267
  H      261.158     -22.044    -198.259
  H      258.259     -13.694    -200.121
  H      259.897     -22.335    -197.058
  P      257.751     -20.485    -194.569
  C      257.984     -18.431    -193.033
  O      257.370     -18.967    -194.198
  O      257.394     -21.483    -193.524
  O      256.985     -20.694    -195.960
  H      257.146     -20.001    -196.626
  H      257.657     -17.423    -192.889
  H      259.047     -18.447    -193.151
  H      257.710     -19.020    -192.183

 6  7  8  9  10  11  12  13  14  15  16  26  30  31  32  33  35 0
 6-311+G(2d,p)
 ****
 37  38 0
 6-311+G(2d,p)
 ****
 1  2  3  4  5  17  18  19  20  21  22  23  24  25 0
 3-21G
 ****
 27  28  29  34  36  39  40  41  42  43  44  45  46 0
 3-21G
 ****


