%nproc=1
%NoSave
%Mem=1900MB
#P OB98/GEN NMR

erre ene a

0 1
  C      151.406    -243.407     233.189
  O      152.358    -243.058     232.195
  P      153.843    -242.686     232.677
  C      153.345    -240.260     233.495
  O      153.985    -241.091     232.542
  C      153.762    -238.798     233.300
  O      152.994    -237.971     234.216
  C      155.247    -238.510     233.568
  O      155.632    -237.449     232.685
  C      155.245    -238.009     235.003
  O      156.402    -237.237     235.312
  C      153.932    -237.229     235.025
  N      154.600    -234.951     239.495
  C      155.398    -234.934     238.365
  N      156.503    -234.150     238.420
  N      155.144    -235.619     237.284
  C      153.999    -236.343     237.370
  C      153.146    -236.473     238.445
  C      153.421    -235.680     239.622
  O      152.701    -235.593     240.610
  N      152.140    -237.364     238.185
  C      152.337    -237.714     236.930
  N      153.423    -237.084     236.377
  O      154.756    -243.250     231.494
  O      154.244    -243.221     234.019
  H      156.347    -236.978     236.257
  H      155.075    -244.153     231.692
  H      154.840    -234.386     240.294
  H      151.730    -238.408     236.367
  H      154.033    -236.221     234.597
  H      155.210    -238.859     235.693
  H      156.745    -233.572     239.210
  H      155.892    -239.381     233.425
  H      157.091    -234.097     237.593
  H      153.493    -238.496     232.283
  H      153.649    -240.575     234.502
  H      152.258    -240.371     233.410
  P      156.607    -237.807     231.463
  C      158.677    -238.665     232.770
  O      158.112    -237.637     231.981
  O      156.414    -236.556     230.477
  O      156.294    -239.092     230.765
  H      156.517    -236.847     229.552
  H      159.767    -238.607     232.704
  H      158.354    -239.658     232.432
  H      158.380    -238.529     233.816
  H      150.469    -243.628     232.723
  H      151.283    -242.589     233.868
  H      151.749    -244.267     233.725

 3  4  5  6  7  8  9  10  11  12  23  26  30  31 0
 6-311+G(2d,p)
 ****
 33  35  36  37  38 0
 6-311+G(2d,p)
 ****
 1  2  13  14  15  16  17  18  19  20  21  22  24  25 0
 3-21G
 ****
 27  28  29  32  34  39  40  41  42  43  44  45  46  47  48  49 0
 3-21G
 ****


