%nproc=1
%NoSave
%Mem=1900MB
#P OB98/GEN NMR

erre ene a

0 1
  C     -520.332    -833.737    -214.830
  O     -521.407    -834.659    -214.881
  P     -522.504    -834.707    -213.707
  C     -524.665    -835.538    -214.838
  O     -523.508    -835.898    -214.106
  C     -525.310    -836.777    -215.451
  O     -524.678    -837.142    -216.711
  C     -525.182    -838.038    -214.600
  O     -525.864    -838.050    -213.362
  C     -525.544    -839.114    -215.603
  O     -526.961    -839.246    -215.752
  C     -524.909    -838.559    -216.915
  N     -523.664    -839.258    -217.262
  C     -523.834    -840.563    -217.741
  O     -524.941    -841.110    -217.873
  N     -522.682    -841.248    -218.042
  C     -521.418    -840.765    -217.889
  O     -520.423    -841.443    -218.137
  C     -521.304    -839.390    -217.363
  C     -522.429    -838.704    -217.081
  O     -523.167    -833.418    -213.411
  O     -521.691    -835.337    -212.477
  H     -527.123    -840.076    -216.237
  H     -521.324    -836.227    -212.639
  H     -522.789    -842.188    -218.382
  H     -520.307    -838.994    -217.235
  H     -522.368    -837.706    -216.697
  H     -525.615    -838.641    -217.750
  H     -525.155    -840.104    -215.307
  H     -524.110    -838.164    -214.360
  H     -526.361    -836.549    -215.680
  H     -524.360    -834.850    -215.652
  H     -525.367    -835.007    -214.194
  P     -525.290    -838.785    -212.065
  C     -526.920    -837.495    -210.524
  O     -526.422    -838.753    -210.923
  O     -523.884    -838.449    -211.643
  O     -525.334    -840.337    -212.512
  H     -524.620    -840.831    -212.074
  H     -527.657    -837.640    -209.712
  H     -527.445    -837.006    -211.356
  H     -526.125    -836.856    -210.148
  H     -519.715    -833.860    -215.696
  H     -519.751    -833.915    -213.950
  H     -520.718    -832.740    -214.806

 3  4  5  6  7  8  9  10  11  12  13  23  28  29  30  31  32 0
 6-311+G(2d,p)
 ****
 33  34 0
 6-311+G(2d,p)
 ****
 1  2  14  15  16  17  18  19  20  21  22  24  25  26  27 0
 3-21G
 ****
 35  36  37  38  39  40  41  42  43  44  45 0
 3-21G
 ****


