%nproc=1
%NoSave
%Mem=1900MB
#P OB98/GEN NMR

erre ene a

0 1
  C     -476.099    -191.799    -274.071
  O     -475.262    -192.931    -274.352
  P     -474.813    -193.153    -275.877
  C     -472.275    -192.870    -275.294
  O     -473.399    -192.405    -276.025
  C     -471.073    -191.952    -275.541
  O     -471.258    -190.682    -274.859
  C     -469.751    -192.503    -275.032
  O     -469.262    -193.536    -275.864
  C     -468.902    -191.236    -275.011
  O     -468.413    -190.942    -276.331
  C     -469.932    -190.171    -274.577
  N     -469.796    -189.779    -273.182
  C     -468.727    -188.935    -272.884
  O     -467.921    -188.558    -273.730
  N     -468.608    -188.562    -271.576
  C     -469.415    -188.962    -270.551
  O     -469.266    -188.586    -269.394
  C     -470.500    -189.890    -270.914
  C     -470.639    -190.246    -272.195
  O     -475.848    -192.204    -276.644
  O     -474.840    -194.590    -276.290
  H     -476.066    -191.402    -276.148
  H     -467.514    -191.332    -276.377
  H     -467.846    -187.944    -271.342
  H     -471.146    -190.249    -270.125
  H     -471.428    -190.937    -272.481
  H     -469.816    -189.268    -275.194
  H     -468.036    -191.328    -274.352
  H     -469.878    -192.883    -274.007
  H     -471.017    -191.756    -276.622
  H     -472.020    -193.884    -275.606
  H     -472.529    -192.906    -274.229
  P     -469.684    -195.040    -275.486
  C     -471.024    -195.447    -277.693
  O     -471.027    -195.358    -276.284
  O     -470.169    -194.851    -273.971
  O     -468.577    -196.038    -275.660
  H     -470.725    -194.071    -273.842
  H     -471.911    -195.996    -278.020
  H     -470.132    -195.975    -278.051
  H     -471.049    -194.440    -278.128
  H     -476.321    -191.771    -273.025
  H     -477.009    -191.882    -274.627
  H     -475.590    -190.901    -274.352

 3  4  5  6  7  8  9  10  11  12  13  24  28  29  30  31  32 0
 6-311+G(2d,p)
 ****
 33  34 0
 6-311+G(2d,p)
 ****
 1  2  14  15  16  17  18  19  20  21  22  23  25  26  27 0
 3-21G
 ****
 35  36  37  38  39  40  41  42  43  44  45 0
 3-21G
 ****


