%nproc=1
%NoSave
%Mem=1900MB
#P OB98/GEN NMR

erre ene a

0 1
  C     -127.700     147.373     -66.703
  O     -126.443     146.940     -66.226
  H     -128.313     146.494     -66.919
  H     -127.580     147.948     -67.623
  H     -128.214     147.980     -65.950
  P     -125.395     148.035     -65.706
  C     -124.237     148.246     -68.000
  O     -124.970     148.914     -66.979
  C     -122.973     149.036     -68.332
  O     -123.317     150.366     -68.785
  C     -122.037     149.230     -67.145
  O     -121.328     148.040     -66.862
  C     -121.188     150.387     -67.647
  O     -120.179     149.929     -68.563
  C     -122.242     151.247     -68.389
  N     -122.742     152.357     -67.576
  C     -122.635     153.625     -68.139
  O     -122.152     153.831     -69.251
  N     -123.069     154.663     -67.356
  C     -123.498     154.561     -66.063
  O     -123.666     155.530     -65.330
  C     -123.659     153.193     -65.549
  C     -123.265     152.170     -66.311
  O     -124.258     147.509     -64.893
  O     -126.301     149.050     -64.858
  H     -126.194     148.859     -63.906
  H     -119.631     149.286     -68.071
  H     -122.952     155.591     -67.736
  H     -124.059     153.068     -64.551
  H     -123.347     151.155     -65.942
  H     -121.816     151.663     -69.312
  H     -120.672     150.908     -66.839
  H     -122.605     149.563     -66.268
  H     -122.458     148.523     -69.154
  H     -124.868     148.178     -68.893
  H     -123.988     147.236     -67.661
  P     -120.872     147.681     -65.369
  C     -118.613     148.863     -65.626
  O     -119.827     148.795     -64.889
  O     -120.417     146.274     -65.168
  O     -122.167     147.994     -64.477
  H     -122.383     147.207     -63.941
  H     -117.993     149.636     -65.222
  H     -118.830     149.079     -66.651
  H     -118.102     147.925     -65.559

 6  7  8  9  10  11  12  13  14  15  16  27  31  32  33  34  35 0
 6-311+G(2d,p)
 ****
 36  37 0
 6-311+G(2d,p)
 ****
 1  2  3  4  5  17  18  19  20  21  22  23  24  25 0
 3-21G
 ****
 26  28  29  30  38  39  40  41  42  43  44  45 0
 3-21G
 ****


