%nproc=1
%NoSave
%Mem=1900MB
#P OB98/GEN NMR

erre ene a

0 1
  C     -728.554       8.562    -795.340
  O     -727.831       7.522    -795.969
  H     -727.850       9.333    -795.020
  H     -729.082       8.180    -794.462
  H     -729.270       9.008    -796.041
  P     -728.639       6.237    -796.501
  C     -728.249       3.715    -796.102
  O     -728.215       5.021    -795.541
  C     -727.116       2.864    -795.525
  O     -725.846       3.519    -795.704
  C     -727.249       2.573    -794.024
  O     -728.148       1.492    -793.805
  C     -725.806       2.205    -793.698
  O     -725.531       0.869    -794.148
  C     -725.023       3.227    -794.541
  N     -721.577       5.763    -791.809
  C     -721.593       4.447    -792.219
  N     -720.551       3.680    -791.799
  N     -722.545       3.907    -792.940
  C     -723.542       4.769    -793.216
  C     -723.655       6.100    -792.869
  C     -722.559       6.700    -792.116
  O     -722.498       7.877    -791.769
  N     -724.860       6.633    -793.244
  C     -725.459       5.646    -793.874
  N     -724.710       4.484    -793.876
  O     -728.503       5.929    -797.961
  O     -730.153       6.523    -796.078
  H     -725.939       0.778    -795.036
  H     -730.642       6.972    -796.801
  H     -720.818       6.120    -791.241
  H     -726.434       5.700    -794.349
  H     -724.080       2.818    -794.907
  H     -725.605       2.245    -792.617
  H     -719.875       3.997    -791.119
  H     -727.534       3.473    -793.472
  H     -720.575       2.697    -792.024
  H     -727.078       1.927    -796.101
  H     -728.144       3.809    -797.190
  H     -729.216       3.235    -795.887
  P     -729.340       1.605    -792.731
  C     -729.599       0.665    -790.335
  O     -728.705       1.112    -791.338
  O     -730.606       0.918    -793.128
  O     -729.504       3.187    -792.490
  H     -730.082       3.624    -793.156
  H     -729.044       0.369    -789.469
  H     -730.159      -0.170    -790.702
  H     -730.269       1.458    -790.076

 6  7  8  9  10  11  12  13  14  15  26  29  33  34 0
 6-311+G(2d,p)
 ****
 36  38  39  40  41 0
 6-311+G(2d,p)
 ****
 1  2  3  4  5  16  17  18  19  20  21  22  23  24  25 0
 3-21G
 ****
 27  28  30  31  32  35  37  42  43  44  45  46  47 0
 3-21G
 ****
 48  49 0
 3-21G
 ****


