%nproc=1
%NoSave
%Mem=1900MB
#P OB98/GEN NMR

erre ene a

0 1
  C      219.699    -120.062    -173.727
  O      219.426    -121.087    -172.771
  P      220.649    -121.723    -171.953
  C      219.978    -120.546    -169.762
  O      221.002    -120.744    -170.732
  C      220.482    -119.672    -168.612
  O      220.995    -118.411    -169.084
  C      219.397    -119.317    -167.609
  O      219.081    -120.428    -166.789
  C      220.032    -118.137    -166.889
  O      220.939    -118.584    -165.869
  C      220.814    -117.446    -168.027
  N      220.171    -116.235    -168.512
  C      220.316    -115.098    -167.710
  O      220.924    -115.165    -166.641
  N      219.754    -113.918    -168.133
  C      219.101    -113.881    -169.255
  N      218.568    -112.686    -169.625
  C      218.914    -115.061    -170.122
  C      219.465    -116.193    -169.692
  O      221.817    -122.162    -172.774
  O      219.967    -122.972    -171.208
  H      221.556    -119.203    -166.308
  H      220.636    -123.671    -171.089
  H      218.365    -114.976    -171.049
  H      219.375    -117.108    -170.265
  H      221.823    -117.175    -167.683
  H      219.283    -117.509    -166.399
  H      218.496    -118.983    -168.141
  H      221.294    -120.213    -168.106
  H      218.700    -111.896    -169.006
  H      219.647    -121.514    -169.378
  H      218.087    -112.544    -170.500
  H      219.110    -120.089    -170.252
  P      217.708    -121.205    -167.081
  C      218.790    -123.546    -167.327
  O      218.057    -122.506    -167.945
  O      216.974    -120.247    -168.140
  O      216.852    -121.438    -165.880
  H      216.011    -120.287    -168.000
  H      218.671    -124.457    -167.920
  H      218.433    -123.740    -166.312
  H      219.852    -123.285    -167.299
  H      218.784    -119.746    -174.183
  H      220.359    -120.442    -174.479
  H      220.159    -119.230    -173.236

 3  4  5  6  7  8  9  10  11  12  13  23  27  28  29  30  32 0
 6-311+G(2d,p)
 ****
 34  35 0
 6-311+G(2d,p)
 ****
 1  2  14  15  16  17  18  19  20  21  22  24  25  26 0
 3-21G
 ****
 31  33  36  37  38  39  40  41  42  43  44  45  46 0
 3-21G
 ****


