%nproc=1
%NoSave
%Mem=1900MB
#P OB98/GEN NMR

erre ene a

0 1
  C      114.538     185.222      54.622
  O      115.076     184.017      54.122
  H      115.233     186.035      54.401
  H      114.417     185.151      55.706
  H      113.577     185.450      54.155
  P      114.139     182.720      54.049
  C      113.667     183.031      51.534
  O      114.215     182.189      52.536
  C      113.954     182.473      50.137
  O      115.385     182.568      49.878
  C      113.553     181.001      49.958
  O      113.182     180.822      48.585
  C      114.857     180.288      50.249
  O      114.842     178.963      49.767
  C      115.857     181.238      49.586
  N      117.226     181.025      50.051
  C      118.040     180.239      49.247
  O      117.650     179.708      48.207
  N      119.316     180.039      49.695
  C      119.824     180.489      50.878
  O      120.968     180.252      51.246
  C      118.903     181.279      51.711
  C      117.666     181.510      51.266
  O      112.756     182.891      54.581
  O      114.952     181.600      54.852
  H      115.720     178.545      49.897
  H      114.333     180.972      55.272
  H      119.923     179.479      49.118
  H      119.272     181.643      52.660
  H      116.964     182.089      51.856
  H      115.848     181.110      48.494
  H      115.038     180.239      51.328
  H      112.738     180.695      50.617
  H      113.457     183.111      49.396
  H      114.123     184.021      51.638
  H      112.586     183.120      51.682
  P      111.879     179.991      48.154
  C      110.547     182.013      47.275
  O      111.150     180.763      46.951
  O      110.976     179.636      49.290
  O      112.453     178.670      47.454
  H      111.815     177.940      47.558
  H      110.096     182.429      46.399
  H      111.294     182.684      47.645
  H      109.798     181.864      48.025

 6  7  8  9  10  11  12  13  14  15  16  26  31  32  33  34  35 0
 6-311+G(2d,p)
 ****
 36  37 0
 6-311+G(2d,p)
 ****
 1  2  3  4  5  17  18  19  20  21  22  23  24  25 0
 3-21G
 ****
 27  28  29  30  38  39  40  41  42  43  44  45 0
 3-21G
 ****


