%nproc=1
%NoSave
%Mem=1900MB
#P OB98/GEN NMR

erre ene a

0 1
  C      -11.702     291.409      18.565
  O      -11.147     291.362      19.860
  H      -12.788     291.485      18.653
  H      -11.457     290.488      18.029
  H      -11.334     292.270      18.002
  P       -9.597     291.705      20.047
  C       -9.106     289.247      20.664
  O       -8.756     290.352      19.839
  C       -9.234     287.956      19.855
  O      -10.424     288.011      19.039
  C       -8.054     287.740      18.904
  O       -6.944     287.078      19.484
  C       -8.687     286.891      17.805
  O       -8.610     285.490      18.119
  C      -10.147     287.358      17.792
  N      -13.520     288.908      14.278
  C      -13.588     287.816      15.122
  N      -14.675     287.027      14.980
  N      -12.667     287.529      16.003
  C      -11.596     288.353      15.959
  C      -11.406     289.453      15.152
  C      -12.465     289.808      14.232
  O      -12.459     290.772      13.474
  N      -10.174     290.024      15.359
  C       -9.590     289.219      16.224
  N      -10.443     288.238      16.677
  O       -9.458     291.958      21.625
  O       -9.101     292.892      19.277
  H       -7.709     285.303      18.446
  H       -8.757     292.614      21.790
  H      -14.273     289.094      13.640
  H       -8.576     289.325      16.590
  H      -10.838     286.508      17.717
  H       -8.165     287.029      16.855
  H      -15.370     287.152      14.263
  H       -7.737     288.688      18.460
  H      -14.672     286.117      15.445
  H       -9.355     287.110      20.543
  H      -10.062     289.496      21.126
  H       -8.374     289.125      21.467
  P       -5.561     287.842      19.717
  C       -4.335     285.985      18.324
  O       -4.523     287.354      18.609
  O       -5.005     287.181      21.063
  O       -5.659     289.330      19.822
  H       -5.199     287.750      21.831
  H       -3.599     285.879      17.554
  H       -5.260     285.559      17.995
  H       -4.004     285.479      19.207

 6  7  8  9  10  11  12  13  14  15  26  29  33  34 0
 6-311+G(2d,p)
 ****
 36  38  39  40  41 0
 6-311+G(2d,p)
 ****
 1  2  3  4  5  16  17  18  19  20  21  22  23  24  25 0
 3-21G
 ****
 27  28  30  31  32  35  37  42  43  44  45  46  47 0
 3-21G
 ****
 48  49 0
 3-21G
 ****


