%nproc=1
%NoSave
%Mem=1900MB
#P OB98/GEN NMR

erre ene a

0 1
  C     -896.990      36.497    -899.011
  O     -895.840      36.492    -898.161
  P     -895.050      37.886    -897.991
  C     -895.680      38.334    -895.491
  O     -895.770      38.755    -896.851
  C     -896.110      39.440    -894.511
  O     -895.080      40.458    -894.411
  C     -897.400      40.174    -894.921
  O     -898.060      40.607    -893.761
  C     -896.840      41.385    -895.681
  O     -897.850      42.422    -895.791
  C     -895.660      41.732    -894.811
  N     -894.290      46.449    -896.021
  C     -895.380      45.980    -895.291
  N     -896.240      46.919    -894.801
  N     -895.650      44.733    -895.091
  C     -894.710      43.913    -895.611
  C     -893.580      44.231    -896.341
  C     -893.330      45.643    -896.581
  O     -892.370      46.102    -897.221
  N     -892.850      43.109    -896.711
  C     -893.570      42.091    -896.221
  N     -894.680      42.535    -895.501
  O     -895.400      38.660    -899.351
  O     -893.570      37.732    -897.821
  H     -897.460      43.141    -896.331
  H     -894.600      38.701    -899.911
  H     -894.160      47.439    -896.141
  H     -893.330      41.066    -896.341
  H     -895.930      42.272    -893.911
  H     -896.550      41.112    -896.691
  H     -896.070      47.920    -894.881
  H     -898.090      39.559    -895.551
  H     -897.020      46.602    -894.251
  H     -896.260      38.974    -893.511
  H     -894.630      38.020    -895.291
  H     -896.280      37.414    -895.371
  P     -898.710      39.467    -892.841
  C     -896.940      39.885    -890.991
  O     -897.550      38.934    -891.841
  O     -898.970      38.247    -893.811
  O     -900.000      39.893    -892.121
  H     -899.660      37.673    -893.501
  H     -897.350      39.741    -889.971
  H     -897.110      40.922    -891.301
  H     -895.860      39.700    -890.981
  H     -897.419      35.517    -899.037
  H     -896.701      36.786    -900.000
  H     -897.711      37.191    -898.632

 3  4  5  6  7  8  9  10  11  12  23  26  30  31 0
 6-311+G(2d,p)
 ****
 33  35  36  37  38 0
 6-311+G(2d,p)
 ****
 1  2  13  14  15  16  17  18  19  20  21  22  24  25 0
 3-21G
 ****
 27  28  29  32  34  39  40  41  42  43  44  45  46  47  48  49 0
 3-21G
 ****


