%nproc=1
%NoSave
%Mem=1900MB
#P OB98/GEN NMR

erre ene a

0 1
  C       70.568     -46.426    -113.670
  O       69.913     -45.285    -114.188
  H       71.389     -46.695    -114.339
  H       69.870     -47.267    -113.613
  H       70.973     -46.211    -112.678
  P       68.630     -44.769    -113.372
  C       67.011     -45.915    -115.041
  O       67.446     -45.805    -113.694
  C       66.291     -47.243    -115.263
  O       67.198     -48.352    -115.087
  C       65.114     -47.484    -114.322
  O       63.943     -46.847    -114.804
  C       65.015     -49.003    -114.358
  O       64.325     -49.448    -115.546
  C       66.492     -49.420    -114.399
  N       70.358     -51.624    -112.013
  C       70.004     -51.647    -113.347
  N       70.779     -52.390    -114.168
  N       68.974     -51.009    -113.837
  C       68.255     -50.354    -112.895
  C       68.500     -50.257    -111.544
  C       69.674     -50.925    -111.026
  O       70.087     -50.875    -109.870
  N       67.551     -49.486    -110.921
  C       66.719     -49.148    -111.888
  N       67.100     -49.655    -113.103
  O       68.189     -43.449    -114.166
  O       68.863     -44.477    -111.929
  H       63.373     -49.273    -115.446
  H       67.882     -42.784    -113.522
  H       71.178     -52.109    -111.698
  H       65.837     -48.534    -111.761
  H       66.641     -50.335    -114.984
  H       64.447     -49.388    -113.511
  H       71.386     -53.117    -113.817
  H       65.353     -47.160    -113.302
  H       70.475     -52.464    -115.130
  H       65.958     -47.264    -116.309
  H       67.884     -45.861    -115.700
  H       66.336     -45.085    -115.271
  P       62.966     -46.155    -113.738
  C       61.541     -48.286    -113.325
  O       62.400     -47.302    -112.766
  O       61.696     -45.754    -114.626
  O       63.538     -44.960    -113.053
  H       61.695     -44.791    -114.786
  H       61.247     -48.977    -112.563
  H       62.057     -48.810    -114.102
  H       60.672     -47.812    -113.731

 6  7  8  9  10  11  12  13  14  15  26  29  33  34 0
 6-311+G(2d,p)
 ****
 36  38  39  40  41 0
 6-311+G(2d,p)
 ****
 1  2  3  4  5  16  17  18  19  20  21  22  23  24  25 0
 3-21G
 ****
 27  28  30  31  32  35  37  42  43  44  45  46  47 0
 3-21G
 ****
 48  49 0
 3-21G
 ****


