%nproc=1
%NoSave
%Mem=1900MB
#P OB98/GEN NMR

erre ene a

0 1
  C      190.086    -164.454     -72.676
  O      189.274    -165.551     -73.041
  H      191.093    -164.618     -73.066
  H      190.138    -164.383     -71.586
  H      189.694    -163.523     -73.092
  P      187.689    -165.371     -72.862
  C      187.849    -166.951     -70.808
  O      187.179    -166.640     -72.020
  C      187.058    -167.986     -70.016
  O      185.766    -167.457     -69.646
  C      186.790    -169.284     -70.769
  O      187.896    -170.173     -70.688
  C      185.601    -169.821     -69.992
  O      186.053    -170.397     -68.748
  C      184.798    -168.541     -69.714
  N      180.679    -170.180     -72.177
  C      181.469    -170.826     -71.247
  N      181.117    -172.091     -70.934
  N      182.515    -170.285     -70.677
  C      182.762    -169.023     -71.104
  C      182.057    -168.282     -72.025
  C      180.896    -168.886     -72.633
  O      180.155    -168.353     -73.456
  N      182.610    -167.040     -72.202
  C      183.662    -167.040     -71.408
  N      183.800    -168.221     -70.722
  O      187.133    -165.645     -74.340
  O      187.254    -164.037     -72.357
  H      185.258    -170.668     -68.253
  H      186.916    -164.790     -74.758
  H      179.892    -170.647     -72.592
  H      184.346    -166.213     -71.287
  H      184.277    -168.579     -68.751
  H      185.066    -170.608     -70.529
  H      180.338    -172.576     -71.351
  H      186.497    -169.097     -71.809
  H      181.680    -172.582     -70.251
  H      187.605    -168.185     -69.085
  H      187.953    -166.037     -70.214
  H      188.845    -167.341     -71.043
  P      188.957    -170.177     -71.892
  C      188.645    -172.744     -72.089
  O      189.561    -171.664     -71.977
  O      190.166    -169.317     -71.295
  O      188.463    -169.607     -73.176
  H      190.235    -168.465     -71.773
  H      189.185    -173.666     -72.136
  H      188.062    -172.627     -72.979
  H      187.998    -172.752     -71.237

 6  7  8  9  10  11  12  13  14  15  26  29  33  34 0
 6-311+G(2d,p)
 ****
 36  38  39  40  41 0
 6-311+G(2d,p)
 ****
 1  2  3  4  5  16  17  18  19  20  21  22  23  24  25 0
 3-21G
 ****
 27  28  30  31  32  35  37  42  43  44  45  46  47 0
 3-21G
 ****
 48  49 0
 3-21G
 ****


