%nproc=1
%NoSave
%Mem=1900MB
#P OB98/GEN NMR

erre ene a

0 1
  C      300.249     750.849     975.447
  O      299.566     751.908     974.792
  P      299.913     752.173     973.245
  C      299.437     749.647     972.656
  O      300.333     750.747     972.641
  C      299.408     748.977     971.284
  O      298.722     749.826     970.335
  C      300.780     748.709     970.675
  O      301.412     747.586     971.260
  C      300.424     748.548     969.199
  O      299.918     747.224     968.951
  C      299.295     749.587     969.026
  N      299.747     750.832     968.411
  C      299.332     751.061     967.100
  O      298.618     750.273     966.478
  N      299.782     752.220     966.524
  C      300.633     753.122     967.096
  O      301.034     754.128     966.516
  C      301.069     752.814     968.471
  C      300.610     751.699     969.054
  O      301.283     752.987     973.381
  O      298.825     752.892     972.518
  H      301.758     752.756     974.204
  H      299.219     747.066     969.607
  H      299.472     752.417     965.583
  H      301.751     753.500     968.949
  H      300.925     751.457     970.056
  H      298.486     749.168     968.411
  H      301.279     748.703     968.538
  H      301.418     749.597     970.801
  H      298.840     748.044     971.360
  H      298.429     750.007     972.907
  H      299.757     748.937     973.423
  P      302.980     747.402     970.966
  C      303.971     749.451     972.244
  O      303.616     748.864     971.006
  O      302.957     747.030     969.401
  O      303.638     746.375     971.836
  H      302.335     747.567     968.897
  H      304.698     750.249     972.061
  H      304.416     748.719     972.924
  H      303.083     749.883     972.707
  H      299.921     750.788     976.464
  H      301.302     751.035     975.422
  H      300.038     749.926     974.949

 3  4  5  6  7  8  9  10  11  12  13  24  28  29  30  31  32 0
 6-311+G(2d,p)
 ****
 33  34 0
 6-311+G(2d,p)
 ****
 1  2  14  15  16  17  18  19  20  21  22  23  25  26  27 0
 3-21G
 ****
 35  36  37  38  39  40  41  42  43  44  45 0
 3-21G
 ****


