%nproc=1
%NoSave
%Mem=1900MB
#P OB98/GEN NMR

erre ene a

0 1
  C      -19.489    -275.997     276.349
  O      -18.407    -276.701     276.932
  H      -20.355    -276.071     277.014
  H      -19.758    -276.430     275.381
  H      -19.232    -274.944     276.222
  P      -17.063    -276.872     276.073
  C      -15.348    -276.543     277.984
  O      -15.959    -275.986     276.824
  C      -14.879    -275.428     278.914
  O      -16.000    -274.868     279.629
  C      -13.903    -275.907     279.981
  O      -12.615    -276.115     279.434
  C      -14.013    -274.783     280.995
  O      -13.231    -273.650     280.604
  C      -15.521    -274.458     280.933
  N      -16.289    -275.109     281.996
  C      -16.553    -274.324     283.124
  O      -16.161    -273.160     283.185
  N      -17.243    -274.897     284.169
  C      -17.640    -276.127     284.085
  N      -18.318    -276.630     285.153
  C      -17.392    -276.981     282.907
  C      -16.711    -276.415     281.912
  O      -17.165    -276.612     274.600
  O      -16.602    -278.374     276.388
  H      -13.606    -273.346     279.752
  H      -16.997    -278.992     275.747
  H      -17.751    -278.002     282.880
  H      -16.487    -276.975     281.010
  H      -15.686    -273.372     281.005
  H      -13.669    -275.097     281.978
  H      -14.279    -276.827     280.448
  H      -14.436    -274.628     278.305
  H      -18.456    -276.012     285.943
  H      -14.493    -277.137     277.647
  H      -18.753    -277.542     285.165
  H      -16.048    -277.206     278.506
  P      -12.133    -277.586     279.014
  C      -11.288    -276.664     276.758
  O      -12.147    -277.600     277.407
  O      -12.869    -278.710     279.669
  O      -10.569    -277.560     279.357
  H      -10.415    -277.616     280.337
  H      -11.384    -276.768     275.697
  H      -10.274    -276.852     277.044
  H      -11.561    -275.670     277.045

 6  7  8  9  10  11  12  13  14  15  16  26  30  31  32  33  35 0
 6-311+G(2d,p)
 ****
 37  38 0
 6-311+G(2d,p)
 ****
 1  2  3  4  5  17  18  19  20  21  22  23  24  25 0
 3-21G
 ****
 27  28  29  34  36  39  40  41  42  43  44  45  46 0
 3-21G
 ****


