%nproc=1
%NoSave
%Mem=1900MB
#P OB98/GEN NMR

erre ene a

0 1
  C      -64.731     -26.511      41.106
  O      -65.866     -25.775      41.527
  P      -65.838     -25.087      42.973
  C      -67.684     -26.647      43.932
  O      -66.351     -26.172      44.038
  C      -68.033     -27.527      45.134
  O      -66.970     -28.505      45.341
  C      -68.201     -26.750      46.449
  O      -69.211     -27.418      47.219
  C      -66.850     -26.935      47.114
  O      -66.878     -26.700      48.513
  C      -66.550     -28.384      46.715
  N      -65.142     -28.740      46.882
  C      -64.708     -29.044      48.168
  O      -65.434     -29.030      49.161
  N      -63.372     -29.313      48.298
  C      -62.433     -29.221      47.313
  O      -61.234     -29.360      47.520
  C      -62.950     -28.895      45.974
  C      -64.258     -28.674      45.822
  O      -67.036     -24.030      42.899
  O      -64.542     -24.439      43.329
  H      -65.968     -26.802      48.845
  H      -66.690     -23.134      42.730
  H      -63.042     -29.547      49.222
  H      -62.234     -28.835      45.164
  H      -64.663     -28.412      44.850
  H      -67.171     -29.073      47.302
  H      -66.128     -26.241      46.669
  H      -68.463     -25.698      46.306
  H      -68.948     -28.087      44.903
  H      -67.783     -27.234      43.018
  H      -68.372     -25.798      43.862
  P      -70.331     -26.514      47.933
  C      -69.331     -26.859      50.323
  O      -69.682     -25.965      49.289
  O      -71.356     -27.644      48.426
  O      -70.949     -25.498      47.029
  H      -70.907     -28.413      48.812
  H      -68.983     -27.816      49.926
  H      -70.198     -27.029      50.965
  H      -68.531     -26.414      50.920
  H      -64.905     -26.905      40.126
  H      -64.555     -27.316      41.788
  H      -63.876     -25.868      41.086

 3  4  5  6  7  8  9  10  11  12  13  23  28  29  30  31  32 0
 6-311+G(2d,p)
 ****
 33  34 0
 6-311+G(2d,p)
 ****
 1  2  14  15  16  17  18  19  20  21  22  24  25  26 0
 3-21G
 ****
 27  35  36  37  38  39  40  41  42  43  44  45 0
 3-21G
 ****


