%nproc=1
%NoSave
%Mem=1900MB
#P OB98/GEN NMR

erre ene a

0 1
  C       71.297     -43.162      16.461
  O       72.514     -42.448      16.181
  P       73.912     -43.241      16.213
  C       75.163     -41.915      18.090
  O       75.060     -42.237      16.711
  C       75.396     -40.410      18.263
  O       74.144     -39.691      18.185
  C       75.997     -40.018      19.604
  O       77.386     -40.293      19.663
  C       75.670     -38.530      19.657
  O       76.640     -37.764      18.920
  C       74.295     -38.482      18.962
  N       73.194     -38.313      19.906
  C       72.741     -37.012      20.101
  O       73.260     -36.031      19.570
  N       71.687     -36.869      20.961
  C       71.098     -37.870      21.683
  O       70.168     -37.676      22.453
  C       71.672     -39.210      21.495
  C       72.681     -39.367      20.634
  O       74.251     -43.383      14.650
  O       73.882     -44.582      16.870
  H       76.681     -38.154      18.024
  H       74.794     -44.180      14.506
  H       71.324     -35.939      21.095
  H       71.250     -40.027      22.067
  H       73.114     -40.351      20.485
  H       74.266     -37.657      18.240
  H       75.665     -38.140      20.679
  H       75.466     -40.530      20.415
  H       76.035     -40.067      17.439
  H       76.004     -42.459      18.526
  H       74.244     -42.223      18.597
  P       77.919     -41.035      20.985
  C       78.735     -38.762      21.987
  O       79.055     -40.074      21.579
  O       78.713     -42.268      20.343
  O       76.823     -41.418      21.923
  H       79.124     -42.037      19.492
  H       77.722     -38.702      22.391
  H       78.825     -38.085      21.131
  H       79.443     -38.449      22.760
  H       70.467     -42.490      16.398
  H       71.346     -43.577      17.446
  H       71.173     -43.950      15.747

 3  4  5  6  7  8  9  10  11  12  13  23  28  29  30  31  32 0
 6-311+G(2d,p)
 ****
 33  34 0
 6-311+G(2d,p)
 ****
 1  2  14  15  16  17  18  19  20  21  22  24  25  26 0
 3-21G
 ****
 27  35  36  37  38  39  40  41  42  43  44  45 0
 3-21G
 ****


