%nproc=1
%NoSave
%Mem=1900MB
#P OB98/GEN NMR

erre ene a

0 1
  C      -97.291     338.403      36.212
  O      -96.661     337.180      35.885
  H      -98.362     338.309      36.012
  H      -96.891     339.215      35.601
  H      -97.154     338.632      37.272
  P      -95.077     337.065      36.091
  C      -94.607     338.596      34.066
  O      -94.427     337.311      34.645
  C      -93.651     338.777      32.892
  O      -92.290     338.574      33.315
  C      -93.896     337.806      31.737
  O      -94.968     338.261      30.926
  C      -92.549     337.865      31.038
  O      -92.450     339.083      30.275
  C      -91.583     337.905      32.233
  N      -88.090     335.406      34.924
  C      -88.172     336.748      34.608
  N      -87.154     337.525      35.036
  N      -89.152     337.274      33.919
  C      -90.059     336.362      33.501
  C      -90.077     335.006      33.737
  C      -89.017     334.444      34.547
  O      -88.916     333.263      34.866
  N      -91.125     334.398      33.095
  C      -91.761     335.388      32.502
  N      -91.146     336.601      32.706
  O      -94.582     335.824      36.772
  O      -94.692     338.389      36.899
  H      -91.631     339.016      29.749
  H      -94.699     338.231      37.860
  H      -87.300     335.059      35.442
  H      -92.669     335.286      31.921
  H      -90.681     338.489      32.019
  H      -92.385     337.036      30.350
  H      -86.262     337.135      35.308
  H      -94.058     336.782      32.095
  H      -87.171     338.502      34.771
  H      -93.732     339.818      32.551
  H      -94.404     339.339      34.843
  H      -95.638     338.719      33.722
  P      -96.242     337.326      30.637
  C      -94.845     335.669      29.229
  O      -95.917     336.602      29.244
  O      -97.557     338.027      30.684
  O      -96.110     336.131      31.686
  H      -96.540     336.318      32.556
  H      -94.738     335.264      28.244
  H      -95.051     334.878      29.920
  H      -93.939     336.163      29.512

 6  7  8  9  10  11  12  13  14  15  26  29  33  34 0
 6-311+G(2d,p)
 ****
 36  38  39  40  41 0
 6-311+G(2d,p)
 ****
 1  2  3  4  5  16  17  18  19  20  21  22  23  24  25 0
 3-21G
 ****
 27  28  30  31  32  35  37  42  43  44  45  46  47 0
 3-21G
 ****
 48  49 0
 3-21G
 ****


