%nproc=1
%NoSave
%Mem=1900MB
#P OB98/GEN NMR

erre ene a

0 1
  C       -2.561     -73.705    -607.882
  O       -3.818     -73.851    -608.511
  H       -2.677     -73.752    -606.795
  H       -1.907     -74.519    -608.205
  H       -2.103     -72.754    -608.169
  P       -4.928     -72.748    -608.146
  C       -5.605     -73.789    -605.873
  O       -5.007     -72.685    -606.544
  C       -5.834     -73.459    -604.406
  O       -6.751     -74.441    -603.856
  C       -4.547     -73.472    -603.551
  O       -4.447     -72.270    -602.776
  C       -4.748     -74.647    -602.606
  O       -4.177     -74.421    -601.320
  C       -6.268     -74.775    -602.543
  N       -7.997     -77.628    -598.687
  C       -8.023     -76.295    -598.894
  N       -7.635     -75.600    -599.985
  C       -7.210     -76.438    -600.949
  C       -7.143     -77.822    -600.896
  C       -7.545     -78.427    -599.695
  N       -7.469     -79.775    -599.466
  N       -6.645     -78.336    -602.083
  C       -6.372     -77.278    -602.816
  N       -6.678     -76.110    -602.169
  O       -6.299     -73.455    -608.574
  O       -4.748     -71.438    -608.838
  H       -4.665     -73.671    -600.918
  H       -6.729     -72.917    -609.264
  H       -8.405     -75.701    -598.065
  H       -5.903     -77.297    -603.797
  H       -6.704     -74.062    -601.832
  H       -4.287     -75.540    -603.041
  H       -3.641     -73.595    -604.154
  H       -6.324     -72.479    -604.337
  H       -4.935     -74.663    -605.947
  H       -7.664     -80.113    -598.534
  H       -7.034     -80.358    -600.168
  H       -6.550     -74.035    -606.365
  P       -3.466     -71.136    -603.359
  C       -1.254     -72.006    -602.293
  O       -1.995     -71.772    -603.489
  O       -3.333     -70.106    -602.133
  O       -3.980     -70.459    -604.581
  H       -3.601     -69.209    -602.421
  H       -0.302     -72.429    -602.540
  H       -1.794     -72.685    -601.666
  H       -1.110     -71.080    -601.776

 6  7  8  9  10  11  12  13  14  15  25  28  32  33  34  35 0
 6-311+G(2d,p)
 ****
 36  39  40 0
 6-311+G(2d,p)
 ****
 1  2  3  4  5  16  17  18  19  20  21  22  23  24 0
 3-21G
 ****
 26  27  29  30  31  37  38  41  42  43  44  45  46  47  48 0
 3-21G
 ****


