%nproc=1
%NoSave
%Mem=1900MB
#P OB98/GEN NMR

erre ene a

0 1
  C     -125.732     656.440     203.807
  O     -124.718     657.218     204.426
  P     -123.389     656.532     205.032
  C     -124.602     654.808     206.522
  O     -123.833     655.987     206.471
  C     -124.326     654.060     207.822
  O     -122.984     653.549     207.833
  C     -124.453     654.922     209.090
  O     -125.823     655.150     209.411
  C     -123.671     654.086     210.086
  O     -124.478     653.000     210.572
  C     -122.521     653.535     209.217
  N     -121.279     654.273     209.362
  C     -120.661     654.183     210.611
  O     -121.132     653.519     211.521
  N     -119.461     654.870     210.791
  C     -118.960     655.566     209.825
  N     -117.747     656.146     210.037
  C     -119.613     655.718     208.503
  C     -120.763     655.052     208.349
  O     -122.182     657.387     205.017
  O     -123.233     655.174     204.182
  H     -124.733     652.471     209.790
  H     -122.713     655.286     203.350
  H     -119.164     656.317     207.742
  H     -121.285     655.091     207.411
  H     -122.352     652.473     209.449
  H     -123.306     654.658     210.942
  H     -123.957     655.880     208.929
  H     -125.025     653.198     207.877
  H     -117.264     655.876     210.884
  H     -124.308     654.157     205.684
  H     -117.155     656.447     209.270
  H     -125.669     655.051     206.422
  P     -126.235     656.616     209.940
  C     -126.089     656.041     212.481
  O     -126.915     656.381     211.380
  O     -127.432     657.018     208.976
  O     -125.112     657.599     209.924
  H     -127.122     657.647     208.287
  H     -126.667     656.163     213.393
  H     -125.235     656.724     212.525
  H     -125.740     655.010     212.391
  H     -126.521     657.082     203.475
  H     -126.119     655.733     204.511
  H     -125.320     655.919     202.968

 3  4  5  6  7  8  9  10  11  12  13  23  27  28  29  30  32 0
 6-311+G(2d,p)
 ****
 34  35 0
 6-311+G(2d,p)
 ****
 1  2  14  15  16  17  18  19  20  21  22  24  25  26 0
 3-21G
 ****
 31  33  36  37  38  39  40  41  42  43  44  45  46 0
 3-21G
 ****


