%nproc=1
%NoSave
%Mem=1900MB
#P OB98/GEN NMR

erre ene a

0 1
  C      164.667    -399.227    -332.909
  O      163.328    -399.567    -332.591
  P      163.009    -401.098    -332.222
  C      163.374    -401.000    -329.645
  O      163.856    -401.441    -330.902
  C      163.344    -402.158    -328.646
  O      162.143    -402.939    -328.880
  C      164.534    -403.120    -328.740
  O      164.784    -403.610    -327.418
  C      163.998    -404.244    -329.606
  O      164.727    -405.458    -329.445
  C      162.551    -404.301    -329.131
  N      159.825    -408.391    -330.324
  C      160.679    -408.176    -329.258
  N      160.770    -409.174    -328.353
  N      161.378    -407.083    -329.092
  C      161.171    -406.168    -330.068
  C      160.383    -406.278    -331.190
  C      159.588    -407.477    -331.341
  O      158.755    -407.671    -332.220
  N      160.499    -405.176    -331.996
  C      161.292    -404.370    -331.322
  N      161.687    -404.908    -330.126
  O      163.763    -401.906    -333.377
  O      161.559    -401.452    -332.125
  H      165.637    -405.306    -329.770
  H      163.157    -402.109    -334.117
  H      159.300    -409.245    -330.387
  H      161.605    -403.388    -331.643
  H      162.436    -404.871    -328.201
  H      164.056    -403.955    -330.663
  H      160.239    -410.030    -328.399
  H      165.435    -402.661    -329.152
  H      161.364    -409.030    -327.546
  H      163.270    -401.741    -327.636
  H      162.354    -400.622    -329.769
  H      164.002    -400.184    -329.274
  P      166.306    -403.705    -326.927
  C      166.394    -401.835    -325.136
  O      166.751    -402.247    -326.441
  O      167.111    -403.894    -328.300
  O      166.592    -404.827    -325.985
  H      167.901    -404.441    -328.143
  H      167.076    -401.042    -324.817
  H      166.458    -402.660    -324.422
  H      165.373    -401.442    -325.145
  H      164.726    -398.182    -333.131
  H      164.986    -399.792    -333.760
  H      165.299    -399.451    -332.075

 3  4  5  6  7  8  9  10  11  12  23  26  30  31 0
 6-311+G(2d,p)
 ****
 33  35  36  37  38 0
 6-311+G(2d,p)
 ****
 1  2  13  14  15  16  17  18  19  20  21  22  24  25 0
 3-21G
 ****
 27  28  29  32  34  39  40  41  42  43  44  45  46  47  48  49 0
 3-21G
 ****


