%nproc=1
%NoSave
%Mem=1900MB
#P OB98/GEN NMR

erre ene a

0 1
  C     -146.178    -158.218     -21.104
  O     -146.956    -158.865     -22.089
  P     -146.264    -159.789     -23.202
  C     -146.358    -157.977     -25.038
  O     -146.827    -159.254     -24.609
  C     -146.962    -157.603     -26.392
  O     -146.428    -158.441     -27.433
  C     -148.476    -157.766     -26.462
  O     -149.125    -156.693     -25.802
  C     -148.694    -157.811     -27.969
  O     -148.735    -156.487     -28.529
  C     -147.441    -158.571     -28.454
  N     -147.722    -159.968     -28.763
  C     -148.527    -160.195     -29.886
  O     -148.979    -159.250     -30.531
  N     -148.835    -161.491     -30.220
  C     -148.402    -162.468     -29.485
  N     -148.752    -163.727     -29.863
  C     -147.577    -162.268     -28.277
  C     -147.282    -161.006     -27.977
  O     -146.384    -161.258     -22.978
  O     -144.746    -159.271     -23.207
  H     -147.884    -156.069     -28.297
  H     -144.255    -159.585     -22.409
  H     -147.250    -163.112     -27.689
  H     -146.684    -160.767     -27.103
  H     -147.030    -158.098     -29.357
  H     -149.638    -158.301     -28.231
  H     -148.768    -158.726     -26.020
  H     -146.685    -156.563     -26.611
  H     -149.345    -163.819     -30.680
  H     -145.270    -158.023     -25.127
  H     -148.502    -164.553     -29.343
  H     -146.611    -157.228     -24.279
  P     -150.273    -156.996     -24.730
  C     -151.551    -155.274     -26.141
  O     -151.375    -155.839     -24.856
  O     -149.797    -157.274     -23.343
  O     -151.024    -158.274     -25.336
  H     -151.187    -158.916     -24.621
  H     -152.519    -154.767     -26.170
  H     -151.526    -156.044     -26.916
  H     -150.760    -154.542     -26.327
  H     -146.818    -157.653     -20.459
  H     -145.478    -157.561     -21.577
  H     -145.649    -158.950     -20.530

 3  4  5  6  7  8  9  10  11  12  13  23  27  28  29  30  32 0
 6-311+G(2d,p)
 ****
 34  35 0
 6-311+G(2d,p)
 ****
 1  2  14  15  16  17  18  19  20  21  22  24  25  26 0
 3-21G
 ****
 31  33  36  37  38  39  40  41  42  43  44  45  46 0
 3-21G
 ****


