%nproc=1
%NoSave
%Mem=1900MB
#P OB98/GEN NMR

erre ene a

0 1
  C      -90.015     263.527     256.243
  O      -90.412     262.917     257.457
  H      -88.997     263.205     256.008
  H      -90.026     264.616     256.332
  H      -90.678     263.213     255.434
  P      -91.754     263.443     258.163
  C      -90.336     265.405     259.048
  O      -91.261     264.373     259.378
  C      -89.819     266.109     260.304
  O      -88.896     267.163     259.955
  C      -90.902     266.796     261.122
  O      -91.828     265.924     261.729
  C      -90.087     267.739     261.989
  O      -89.547     267.092     263.140
  C      -88.944     268.138     261.021
  N      -89.101     269.492     260.506
  C      -88.785     270.521     261.385
  O      -88.413     270.333     262.545
  N      -88.940     271.790     260.900
  C      -89.416     272.122     259.665
  O      -89.553     273.283     259.296
  C      -89.774     270.995     258.791
  C      -89.601     269.747     259.244
  O      -92.731     262.378     258.571
  O      -92.351     264.497     257.119
  H      -90.294     266.905     263.740
  H      -93.294     264.707     257.322
  H      -88.702     272.550     261.519
  H      -90.167     271.218     257.812
  H      -89.855     268.896     258.616
  H      -87.974     268.080     261.535
  H      -90.677     268.589     262.343
  H      -91.494     267.430     260.444
  H      -89.274     265.372     260.905
  H      -90.859     266.133     258.416
  H      -89.501     264.980     258.482
  P      -93.403     266.004     261.503
  C      -93.817     268.103     263.003
  O      -94.064     266.726     262.775
  O      -94.067     264.780     260.966
  O      -93.512     267.153     260.371
  H      -94.269     266.922     259.800
  H      -94.332     268.416     263.887
  H      -94.167     268.671     262.167
  H      -92.766     268.261     263.127

 6  7  8  9  10  11  12  13  14  15  16  26  31  32  33  34  35 0
 6-311+G(2d,p)
 ****
 36  37 0
 6-311+G(2d,p)
 ****
 1  2  3  4  5  17  18  19  20  21  22  23  24  25 0
 3-21G
 ****
 27  28  29  30  38  39  40  41  42  43  44  45 0
 3-21G
 ****


