%nproc=1
%NoSave
%Mem=1900MB
#P OB98/GEN NMR

erre ene a

0 1
  C     -194.168     207.192    -439.324
  O     -194.305     208.224    -440.276
  H     -193.126     207.160    -438.990
  H     -194.413     206.229    -439.784
  H     -194.807     207.362    -438.456
  P     -195.778     208.679    -440.715
  C     -195.192     211.159    -440.324
  O     -196.059     210.083    -439.987
  C     -194.346     211.575    -439.113
  O     -193.553     210.432    -438.684
  C     -193.371     212.730    -439.406
  O     -193.211     213.465    -438.187
  C     -192.098     211.979    -439.738
  O     -190.963     212.816    -439.652
  C     -192.167     210.830    -438.728
  N     -191.285     209.716    -439.081
  C     -190.116     209.598    -438.344
  O     -189.789     210.392    -437.459
  N     -189.292     208.558    -438.682
  C     -189.494     207.688    -439.714
  O     -188.707     206.795    -439.995
  C     -190.731     207.890    -440.488
  C     -191.559     208.875    -440.137
  O     -196.853     207.660    -440.532
  O     -195.618     209.110    -442.250
  H     -191.054     213.569    -440.270
  H     -196.451     208.946    -442.730
  H     -188.442     208.450    -438.156
  H     -190.920     207.218    -441.314
  H     -192.478     209.048    -440.689
  H     -191.888     211.176    -437.722
  H     -192.138     211.585    -440.761
  H     -193.707     213.382    -440.207
  H     -195.017     211.825    -438.286
  H     -195.815     212.001    -440.645
  H     -194.541     210.861    -441.150
  P     -194.113     214.742    -437.842
  C     -194.791     214.800    -435.355
  O     -195.137     214.355    -436.668
  O     -194.764     215.379    -439.025
  O     -193.111     215.771    -437.132
  H     -193.418     216.686    -437.279
  H     -195.543     214.485    -434.662
  H     -194.723     215.868    -435.347
  H     -193.848     214.381    -435.073

 6  7  8  9  10  11  12  13  14  15  16  26  31  32  33  34  35 0
 6-311+G(2d,p)
 ****
 36  37 0
 6-311+G(2d,p)
 ****
 1  2  3  4  5  17  18  19  20  21  22  23  24  25 0
 3-21G
 ****
 27  28  29  30  38  39  40  41  42  43  44  45 0
 3-21G
 ****


