%nproc=1
%NoSave
%Mem=1900MB
#P OB98/GEN NMR

erre ene a

0 1
  C     -382.047      -5.521     434.931
  O     -381.518      -4.556     434.048
  H     -381.673      -6.509     434.640
  H     -383.140      -5.532     434.866
  H     -381.736      -5.318     435.960
  P     -381.807      -3.011     434.387
  C     -382.381      -2.101     432.017
  O     -381.424      -2.180     433.069
  C     -381.766      -2.554     430.691
  O     -381.866      -4.001     430.603
  C     -382.451      -1.954     429.461
  O     -381.446      -1.665     428.482
  C     -383.333      -3.083     428.961
  O     -383.623      -2.976     427.563
  C     -382.524      -4.321     429.359
  N     -383.371      -5.501     429.483
  C     -383.623      -6.212     428.307
  O     -383.159      -5.831     427.235
  N     -384.465      -7.306     428.359
  C     -385.055      -7.604     429.475
  N     -385.895      -8.678     429.455
  C     -384.869      -6.842     430.728
  C     -384.020      -5.819     430.653
  O     -380.638      -2.632     435.410
  O     -383.163      -2.724     434.931
  H     -383.878      -2.047     427.375
  H     -380.942      -1.957     436.051
  H     -385.406      -7.112     431.621
  H     -383.820      -5.193     431.524
  H     -381.738      -4.521     428.614
  H     -384.294      -3.069     429.497
  H     -383.016      -1.048     429.682
  H     -380.693      -2.303     430.707
  H     -386.007      -9.165     428.577
  H     -382.717      -1.065     431.920
  H     -386.442      -8.973     430.253
  H     -383.247      -2.725     432.268
  P     -381.034      -0.121     428.318
  C     -380.465      -0.375     425.786
  O     -380.000      -0.015     427.082
  O     -380.118       0.158     429.600
  O     -382.201       0.809     428.244
  H     -380.601       0.722     430.227
  H     -379.673      -0.254     425.077
  H     -381.287       0.254     425.514
  H     -380.785      -1.396     425.793

 6  7  8  9  10  11  12  13  14  15  16  26  30  31  32  33  35 0
 6-311+G(2d,p)
 ****
 37  38 0
 6-311+G(2d,p)
 ****
 1  2  3  4  5  17  18  19  20  21  22  23  24  25 0
 3-21G
 ****
 27  28  29  34  36  39  40  41  42  43  44  45  46 0
 3-21G
 ****


