%nproc=1
%NoSave
%Mem=1900MB
#P OB98/GEN NMR

erre ene a

0 1
  C      145.250     -11.745     -56.999
  O      146.374     -10.889     -57.211
  P      147.130     -10.352     -55.899
  C      146.983      -7.784     -56.232
  O      146.523      -8.917     -55.510
  C      146.583      -6.470     -55.549
  O      145.137      -6.333     -55.493
  C      147.107      -6.340     -54.117
  O      147.390      -4.957     -53.886
  C      145.908      -6.740     -53.278
  O      146.023      -6.243     -51.945
  C      144.767      -6.136     -54.110
  N      143.463      -6.729     -53.813
  C      142.479      -5.880     -53.302
  O      142.744      -4.701     -53.054
  N      141.231      -6.388     -53.043
  C      141.002      -7.653     -53.228
  N      139.744      -8.098     -52.952
  C      142.026      -8.601     -53.710
  C      143.219      -8.073     -53.983
  O      148.601     -10.010     -56.432
  O      147.173     -11.346     -54.783
  H      145.985      -5.261     -51.981
  H      149.269     -10.413     -55.850
  H      141.794      -9.650     -53.828
  H      144.033      -8.686     -54.342
  H      144.690      -5.057     -53.936
  H      145.821      -7.834     -53.235
  H      148.004      -6.939     -53.924
  H      146.965      -5.639     -56.157
  H      139.068      -7.416     -52.629
  H      146.573      -7.798     -57.247
  H      139.456      -9.059     -53.055
  H      148.071      -7.853     -56.346
  P      148.854      -4.409     -54.242
  C      149.865      -4.991     -51.953
  O      149.851      -5.284     -53.337
  O      148.870      -3.004     -53.464
  O      149.221      -4.237     -55.679
  H      149.698      -2.527     -53.662
  H      150.484      -5.734     -51.445
  H      148.850      -5.038     -51.542
  H      150.296      -4.000     -51.783
  H      144.837     -12.032     -57.943
  H      144.509     -11.225     -56.429
  H      145.562     -12.619     -56.466

 3  4  5  6  7  8  9  10  11  12  13  21  23  27  28  29  30  32 0
 6-311+G(2d,p)
 ****
 34  35 0
 6-311+G(2d,p)
 ****
 1  2  14  15  16  17  18  19  20  22  24  25  26 0
 3-21G
 ****
 31  33  36  37  38  39  40  41  42  43  44  45  46 0
 3-21G
 ****


