%nproc=1
%NoSave
%Mem=1900MB
#P OB98/GEN NMR

erre ene a

0 1
  C      -28.352    -797.414     -50.168
  O      -29.488    -797.704     -51.003
  P      -30.493    -796.513     -51.388
  C      -31.963    -796.150     -49.264
  O      -31.878    -796.659     -50.579
  C      -32.620    -797.160     -48.310
  O      -33.872    -797.653     -48.883
  C      -31.762    -798.397     -47.996
  O      -32.060    -798.800     -46.656
  C      -32.284    -799.420     -48.984
  O      -31.978    -800.764     -48.618
  C      -33.776    -799.087     -48.958
  N      -34.533    -799.606     -50.102
  C      -35.308    -800.743     -49.908
  O      -35.352    -801.389     -48.850
  N      -36.034    -801.164     -50.991
  C      -36.026    -800.595     -52.241
  O      -36.668    -801.039     -53.180
  C      -35.160    -799.400     -52.380
  C      -34.466    -798.978     -51.320
  O      -30.932    -796.924     -52.883
  O      -29.905    -795.139     -51.383
  H      -31.014    -800.865     -48.670
  H      -30.894    -796.138     -53.460
  H      -36.606    -801.987     -50.871
  H      -35.132    -798.924     -53.350
  H      -33.856    -798.096     -51.407
  H      -34.218    -799.473     -48.023
  H      -31.835    -799.237     -49.969
  H      -30.684    -798.209     -48.103
  H      -32.882    -796.645     -47.382
  H      -32.553    -795.232     -49.259
  H      -30.942    -795.907     -48.904
  P      -31.344    -798.026     -45.437
  C      -29.427    -799.625     -44.658
  O      -30.738    -799.149     -44.461
  O      -32.635    -797.491     -44.643
  O      -30.424    -796.931     -45.860
  H      -33.316    -798.179     -44.537
  H      -28.741    -798.808     -44.914
  H      -29.412    -800.369     -45.442
  H      -29.088    -800.084     -43.724
  H      -27.789    -798.310     -50.008
  H      -28.689    -797.032     -49.227
  H      -27.733    -796.685     -50.648

 3  4  5  6  7  8  9  10  11  12  13  23  28  29  30  31  32 0
 6-311+G(2d,p)
 ****
 33  34 0
 6-311+G(2d,p)
 ****
 1  2  14  15  16  17  18  19  20  21  22  24  25  26 0
 3-21G
 ****
 27  35  36  37  38  39  40  41  42  43  44  45 0
 3-21G
 ****


