%nproc=1
%NoSave
%Mem=1900MB
#P OB98/GEN NMR

erre ene a

0 1
  C     -100.853    -629.908     245.564
  O     -102.039    -629.966     244.764
  P     -101.891    -630.656     243.321
  C     -103.401    -629.346     241.658
  O     -103.275    -630.455     242.532
  C     -104.855    -629.154     241.223
  O     -105.466    -630.397     240.782
  C     -105.751    -628.619     242.321
  O     -105.581    -627.221     242.454
  C     -107.142    -629.007     241.815
  O     -107.641    -628.033     240.876
  C     -106.874    -630.342     241.119
  N     -109.028    -634.944     240.933
  C     -108.963    -633.953     239.963
  N     -109.531    -634.230     238.779
  N     -108.394    -632.795     240.154
  C     -107.860    -632.640     241.396
  C     -107.837    -633.551     242.427
  C     -108.483    -634.839     242.203
  O     -108.549    -635.756     243.012
  N     -107.153    -633.072     243.507
  C     -106.881    -631.820     243.180
  N     -107.230    -631.529     241.882
  O     -101.855    -632.217     243.664
  O     -100.668    -630.226     242.587
  H     -107.557    -627.151     241.273
  H     -100.960    -632.577     243.501
  H     -109.499    -635.809     240.731
  H     -106.405    -631.103     243.834
  H     -107.425    -630.417     240.174
  H     -107.868    -629.061     242.633
  H     -109.991    -635.115     238.559
  H     -105.536    -629.132     243.273
  H     -109.485    -633.521     238.048
  H     -104.856    -628.470     240.361
  H     -102.769    -629.493     240.772
  H     -103.022    -628.449     242.167
  P     -105.785    -626.565     243.905
  C     -106.861    -624.411     242.920
  O     -105.828    -624.967     243.712
  O     -104.394    -626.832     244.638
  O     -106.924    -627.149     244.677
  H     -104.548    -627.147     245.540
  H     -107.079    -623.406     243.282
  H     -107.776    -625.009     242.950
  H     -106.523    -624.333     241.873
  H     -101.074    -629.430     246.496
  H     -100.101    -629.350     245.047
  H     -100.498    -630.900     245.748

 3  4  5  6  7  8  9  10  11  12  23  26  30  31 0
 6-311+G(2d,p)
 ****
 33  35  36  37  38 0
 6-311+G(2d,p)
 ****
 1  2  13  14  15  16  17  18  19  20  21  22  24  25 0
 3-21G
 ****
 27  28  29  32  34  39  40  41  42  43  44  45  46  47  48  49 0
 3-21G
 ****


