%nproc=1
%NoSave
%Mem=1900MB
#P OB98/GEN NMR

erre ene a

0 1
  C      735.611    -852.383     128.142
  O      734.555    -851.431     128.054
  P      734.360    -850.190     129.055
  C      732.594    -850.800     130.913
  O      733.964    -850.756     130.498
  C      732.338    -852.032     131.801
  O      733.016    -851.859     133.089
  C      730.845    -852.233     132.111
  O      730.439    -853.606     132.063
  C      730.679    -851.517     133.450
  O      729.515    -851.919     134.157
  C      732.001    -851.782     134.130
  N      731.138    -849.926     138.788
  C      730.425    -850.872     138.104
  N      729.348    -851.406     138.724
  N      730.747    -851.301     136.903
  C      731.809    -850.627     136.377
  C      732.589    -849.634     136.971
  C      732.247    -849.238     138.328
  O      732.859    -848.417     138.986
  N      733.588    -849.211     136.101
  C      733.420    -849.907     135.021
  N      732.360    -850.810     135.144
  O      733.544    -849.070     128.514
  O      735.871    -849.643     129.289
  H      729.377    -851.275     134.884
  H      735.783    -848.691     129.410
  H      730.871    -849.664     139.757
  H      734.029    -849.833     134.133
  H      731.999    -852.763     134.644
  H      730.572    -850.451     133.241
  H      728.971    -851.042     139.575
  H      730.213    -851.742     131.338
  H      728.713    -851.933     138.134
  H      732.774    -852.915     131.361
  H      731.995    -850.881     130.001
  H      732.319    -849.892     131.430
  P      729.238    -854.249     131.182
  C      727.089    -854.096     132.621
  O      727.882    -853.517     131.557
  O      729.045    -855.714     131.783
  O      729.530    -854.307     129.706
  H      729.228    -856.378     131.104
  H      726.104    -853.674     132.597
  H      727.555    -853.875     133.566
  H      727.034    -855.166     132.461
  H      735.508    -853.103     127.357
  H      735.566    -852.879     129.089
  H      736.552    -851.882     128.046

 3  4  5  6  7  8  9  10  11  12  23  26  30  31 0
 6-311+G(2d,p)
 ****
 33  35  36  37  38 0
 6-311+G(2d,p)
 ****
 1  2  13  14  15  16  17  18  19  20  21  22  24  25 0
 3-21G
 ****
 27  28  29  32  34  39  40  41  42  43  44  45  46  47  48  49 0
 3-21G
 ****


