%nproc=1
%NoSave
%Mem=1900MB
#P OB98/GEN NMR

erre ene a

0 1
  C      -99.851     381.435      94.889
  O      -99.215     382.665      95.154
  H      -99.867     381.275      93.809
  H     -100.881     381.471      95.254
  H      -99.324     380.601      95.359
  P      -98.648     382.938      96.624
  C     -100.820     384.183      97.254
  O      -99.900     383.159      97.609
  C     -102.265     383.764      97.525
  O     -102.597     382.616      96.714
  C     -102.494     383.356      98.983
  O     -102.814     384.431      99.850
  C     -103.667     382.387      98.859
  O     -104.925     383.077      98.919
  C     -103.463     381.761      97.474
  N     -104.128     376.897      98.902
  C     -104.897     378.003      99.209
  N     -105.949     377.782     100.026
  N     -104.639     379.205      98.766
  C     -103.500     379.285      98.041
  C     -102.646     378.263      97.690
  C     -102.980     376.923      98.122
  O     -102.339     375.910      97.865
  N     -101.566     378.730      96.981
  C     -101.724     380.039      96.983
  N     -102.923     380.416      97.542
  O      -98.029     384.414      96.517
  O      -97.617     381.966      97.109
  H     -104.940     383.738      98.198
  H      -97.272     384.494      97.125
  H     -104.392     375.993      99.248
  H     -101.030     380.752      96.555
  H     -104.409     381.695      96.923
  H     -103.664     381.665      99.680
  H     -106.143     376.898     100.465
  H     -101.635     382.804      99.371
  H     -106.425     378.592     100.427
  H     -102.940     384.574      97.224
  H     -100.680     384.373      96.189
  H     -100.584     385.109      97.787
  P     -101.866     384.800     101.083
  C     -103.750     384.404     102.868
  O     -102.452     384.110     102.396
  O     -102.166     386.354     101.316
  O     -100.410     384.535     100.875
  H     -101.475     386.903     100.900
  H     -103.944     383.837     103.755
  H     -104.469     384.149     102.117
  H     -103.821     385.448     103.089

 6  7  8  9  10  11  12  13  14  15  26  29  33  34 0
 6-311+G(2d,p)
 ****
 36  38  39  40  41 0
 6-311+G(2d,p)
 ****
 1  2  3  4  5  16  17  18  19  20  21  22  23  24  25 0
 3-21G
 ****
 27  28  30  31  32  35  37  42  43  44  45  46  47 0
 3-21G
 ****
 48  49 0
 3-21G
 ****


