%nproc=1
%NoSave
%Mem=1900MB
#P OB98/GEN NMR

erre ene a

0 1
  C      880.802    -580.865    -753.347
  O      881.137    -582.150    -752.865
  H      880.870    -580.866    -754.434
  H      881.499    -580.129    -752.953
  H      879.776    -580.593    -753.069
  P      880.827    -582.516    -751.335
  C      879.101    -584.351    -751.922
  O      880.357    -584.049    -751.323
  C      879.230    -585.495    -752.926
  O      879.820    -584.975    -754.160
  C      880.119    -586.661    -752.446
  O      879.618    -587.849    -753.031
  C      881.463    -586.282    -753.057
  O      882.346    -587.387    -753.087
  C      881.020    -585.737    -754.420
  N      882.059    -584.940    -755.079
  C      882.337    -585.222    -756.397
  O      881.780    -586.147    -757.034
  N      883.320    -584.483    -756.993
  C      884.083    -583.533    -756.381
  O      884.963    -582.919    -756.940
  C      883.768    -583.289    -754.949
  C      882.775    -583.986    -754.373
  O      879.916    -581.578    -750.614
  O      882.279    -582.590    -750.646
  H      882.053    -588.030    -753.789
  H      882.216    -582.337    -749.712
  H      883.531    -584.701    -757.958
  H      884.360    -582.540    -754.428
  H      882.548    -583.835    -753.327
  H      880.751    -586.565    -755.095
  H      881.966    -585.494    -752.468
  H      880.165    -586.748    -751.354
  H      878.227    -585.857    -753.182
  H      878.761    -583.434    -752.429
  H      878.370    -584.616    -751.140
  P      880.223    -589.308    -752.683
  C      878.001    -590.437    -751.987
  O      879.084    -590.414    -752.927
  O      880.870    -589.388    -751.321
  O      881.284    -589.607    -753.842
  H      881.995    -590.194    -753.491
  H      877.313    -591.211    -752.255
  H      877.498    -589.493    -751.999
  H      878.384    -590.624    -751.006

 6  7  8  9  10  11  12  13  14  15  16  26  31  32  33  34  35 0
 6-311+G(2d,p)
 ****
 36  37 0
 6-311+G(2d,p)
 ****
 1  2  3  4  5  17  18  19  20  21  22  23  24  25 0
 3-21G
 ****
 27  28  29  30  38  39  40  41  42  43  44  45 0
 3-21G
 ****


