%nproc=1
%NoSave
%Mem=1900MB
#P OB98/GEN NMR

erre ene a

0 1
  C      654.326     139.821     -54.262
  O      654.451     138.460     -54.623
  H      653.871     139.879     -53.268
  H      653.692     140.350     -54.972
  H      655.312     140.291     -54.221
  P      655.058     138.162     -56.081
  C      653.414     136.202     -56.415
  O      654.780     136.594     -56.312
  C      653.248     134.725     -56.052
  O      654.337     133.974     -56.654
  C      653.290     134.463     -54.536
  O      652.388     133.398     -54.229
  C      654.723     133.991     -54.313
  O      654.850     133.207     -53.130
  C      654.993     133.232     -55.614
  N      659.374     131.374     -53.783
  C      658.088     131.197     -53.413
  N      656.979     131.717     -53.971
  C      657.286     132.444     -55.063
  C      658.547     132.716     -55.562
  C      659.631     132.151     -54.870
  N      660.942     132.346     -55.225
  N      658.456     133.542     -56.667
  C      657.166     133.756     -56.839
  N      656.420     133.120     -55.874
  O      656.471     138.590     -56.293
  O      653.974     138.852     -57.036
  H      655.778     132.888     -53.064
  H      653.063     138.620     -56.771
  H      657.937     130.563     -52.535
  H      656.720     134.357     -57.622
  H      654.584     132.203     -55.605
  H      655.388     134.850     -54.221
  H      653.053     135.341     -53.944
  H      652.316     134.350     -56.494
  H      653.052     136.364     -57.443
  H      661.667     131.909     -54.668
  H      661.163     132.917     -56.031
  H      652.829     136.832     -55.737
  P      650.957     133.750     -53.615
  C      651.138     133.114     -51.123
  O      650.641     132.740     -52.409
  O      649.846     133.901     -54.604
  O      651.220     135.133     -52.846
  H      650.480     135.747     -53.009
  H      650.867     132.368     -50.405
  H      650.716     134.055     -50.837
  H      652.204     133.199     -51.164

 6  7  8  9  10  11  12  13  14  15  25  28  32  33  34  35 0
 6-311+G(2d,p)
 ****
 36  39  40 0
 6-311+G(2d,p)
 ****
 1  2  3  4  5  16  17  18  19  20  21  22  23  24 0
 3-21G
 ****
 26  27  29  30  31  37  38  41  42  43  44  45  46  47 0
 3-21G
 ****
 48 0
 3-21G
 ****


