%nproc=1
%NoSave
%Mem=1900MB
#P OB98/GEN NMR

erre ene a

0 1
  C      134.807     417.009     271.887
  O      134.646     416.464     273.183
  H      134.014     417.743     271.718
  H      134.720     416.224     271.133
  H      135.775     417.512     271.794
  P      135.745     415.426     273.723
  C      134.031     413.616     273.088
  O      134.958     414.064     274.065
  C      133.447     412.261     273.483
  O      134.476     411.247     273.344
  C      132.934     412.211     274.928
  O      131.750     411.411     274.961
  C      134.047     411.505     275.675
  O      133.579     410.832     276.844
  C      134.595     410.564     274.607
  N      137.585     407.391     277.168
  C      136.207     407.428     277.061
  N      135.517     406.504     277.759
  N      135.561     408.304     276.334
  C      136.376     409.165     275.677
  C      137.750     409.228     275.702
  C      138.454     408.264     276.521
  O      139.670     408.189     276.658
  N      138.212     410.260     274.919
  C      137.117     410.819     274.429
  N      135.979     410.195     274.868
  O      136.611     415.932     274.831
  O      136.595     415.046     272.426
  H      134.355     410.385     277.247
  H      137.435     415.544     272.406
  H      138.029     406.701     277.747
  H      137.096     411.673     273.766
  H      134.024     409.622     274.550
  H      134.809     412.235     275.983
  H      135.948     405.789     278.327
  H      132.722     413.205     275.341
  H      134.507     406.496     277.682
  H      132.650     412.003     272.777
  H      134.555     413.523     272.129
  H      133.229     414.355     272.980
  P      130.325     412.143     275.055
  C      129.826     411.483     277.498
  O      129.432     411.358     276.137
  O      129.650     412.418     273.751
  O      130.680     413.510     275.822
  H      130.057     414.203     275.530
  H      129.159     410.919     278.116
  H      129.794     412.513     277.785
  H      130.822     411.111     277.617

 6  7  8  9  10  11  12  13  14  15  26  29  33  34 0
 6-311+G(2d,p)
 ****
 36  38  39  40  41 0
 6-311+G(2d,p)
 ****
 1  2  3  4  5  16  17  18  19  20  21  22  23  24  25 0
 3-21G
 ****
 27  28  30  31  32  35  37  42  43  44  45  46  47 0
 3-21G
 ****
 48  49 0
 3-21G
 ****


