%nproc=1
%NoSave
%Mem=1900MB
#P OB98/GEN NMR

erre ene a

0 1
  C      -53.368     311.183     -34.034
  O      -52.164     311.856     -34.346
  H      -54.067     311.319     -34.861
  H      -53.815     311.599     -33.125
  H      -53.185     310.112     -33.902
  P      -50.981     311.844     -33.267
  C      -49.639     309.929     -34.366
  O      -50.411     310.343     -33.247
  C      -49.072     308.534     -34.129
  O      -48.446     308.036     -35.329
  C      -48.008     308.466     -33.033
  O      -48.615     308.411     -31.753
  C      -47.310     307.167     -33.401
  O      -48.117     306.050     -32.987
  C      -47.282     307.252     -34.940
  N      -42.390     306.635     -36.138
  C      -43.246     305.795     -35.450
  N      -42.715     304.642     -34.992
  N      -44.505     306.068     -35.224
  C      -44.879     307.285     -35.680
  C      -44.120     308.211     -36.357
  C      -42.746     307.868     -36.660
  O      -41.961     308.573     -37.288
  N      -44.817     309.371     -36.575
  C      -46.013     309.128     -36.076
  N      -46.101     307.875     -35.512
  O      -51.322     312.383     -31.912
  O      -49.802     312.671     -33.965
  H      -48.309     306.170     -32.039
  H      -49.846     313.616     -33.726
  H      -41.429     306.372     -36.274
  H      -46.852     309.814     -36.100
  H      -47.378     306.266     -35.406
  H      -46.336     307.060     -32.923
  H      -41.724     304.446     -35.004
  H      -47.295     309.291     -33.115
  H      -43.312     304.042     -34.435
  H      -49.909     307.864     -33.904
  H      -48.831     310.655     -34.496
  H      -50.253     309.927     -35.274
  P      -47.738     308.342     -30.409
  C      -47.649     310.919     -30.588
  O      -46.929     309.724     -30.357
  O      -46.894     307.118     -30.277
  O      -48.799     308.535     -29.234
  H      -49.236     307.688     -28.964
  H      -46.984     311.755     -30.522
  H      -48.420     311.018     -29.853
  H      -48.088     310.888     -31.563

 6  7  8  9  10  11  12  13  14  15  26  29  33  34 0
 6-311+G(2d,p)
 ****
 36  38  39  40  41 0
 6-311+G(2d,p)
 ****
 1  2  3  4  5  16  17  18  19  20  21  22  23  24  25 0
 3-21G
 ****
 27  28  30  31  32  35  37  42  43  44  45  46  47 0
 3-21G
 ****
 48  49 0
 3-21G
 ****


