%nproc=1
%NoSave
%Mem=1900MB
#P OB98/GEN NMR

erre ene a

0 1
  C      285.116     101.431    -597.748
  O      284.819     102.360    -598.772
  H      285.486     101.976    -596.878
  H      285.886     100.733    -598.083
  H      284.212     100.885    -597.466
  P      284.362     101.749    -600.183
  C      284.765     104.091    -601.258
  O      285.077     102.707    -601.258
  C      285.720     104.845    -602.181
  O      287.085     104.719    -601.712
  C      285.743     104.335    -603.618
  O      284.634     104.762    -604.385
  C      287.043     104.961    -604.094
  O      286.842     106.367    -604.321
  C      287.952     104.716    -602.873
  N      288.695     103.453    -602.956
  C      290.039     103.536    -603.324
  O      290.562     104.625    -603.557
  N      290.767     102.377    -603.445
  C      290.208     101.230    -603.209
  N      290.974     100.118    -603.350
  C      288.790     101.098    -602.809
  C      288.104     102.232    -602.706
  O      282.826     102.179    -600.296
  O      284.613     100.290    -600.376
  H      287.719     106.750    -604.520
  H      282.483     101.978    -601.205
  H      288.363     100.120    -602.637
  H      287.059     102.210    -602.416
  H      288.671     105.532    -602.750
  H      287.409     104.539    -605.028
  H      285.845     103.239    -603.655
  H      285.455     105.905    -602.138
  H      291.923     100.237    -603.683
  H      284.860     104.466    -600.231
  H      290.589      99.180    -603.335
  H      283.738     104.243    -601.598
  P      283.471     103.693    -604.662
  C      282.214     105.100    -606.461
  O      282.968     103.931    -606.168
  O      282.254     104.232    -603.778
  O      283.829     102.273    -604.326
  H      281.724     103.491    -603.422
  H      281.958     105.108    -607.500
  H      282.797     105.967    -606.230
  H      281.320     105.104    -605.873

 6  7  8  9  10  11  12  13  14  15  16  26  30  31  32  33  35 0
 6-311+G(2d,p)
 ****
 37  38 0
 6-311+G(2d,p)
 ****
 1  2  3  4  5  17  18  19  20  21  22  23  24  25 0
 3-21G
 ****
 27  28  29  34  36  39  40  41  42  43  44  45  46 0
 3-21G
 ****


