%nproc=1
%NoSave
%Mem=1900MB
#P OB98/GEN NMR

erre ene a

0 1
  C      820.981    -910.380    -487.757
  O      822.104    -909.956    -487.014
  H      821.184    -911.375    -488.167
  H      820.788    -909.699    -488.592
  H      820.094    -910.432    -487.110
  P      822.053    -908.467    -486.416
  C      824.558    -908.004    -486.991
  O      823.551    -908.093    -485.978
  C      825.609    -906.977    -486.569
  O      825.039    -905.637    -486.640
  C      826.101    -907.139    -485.139
  O      827.067    -908.165    -484.998
  C      826.700    -905.755    -484.881
  O      828.052    -905.670    -485.376
  C      825.757    -904.834    -485.666
  N      824.852    -904.104    -484.776
  C      825.450    -903.278    -483.854
  O      826.686    -903.157    -483.743
  N      824.619    -902.617    -482.992
  C      823.262    -902.747    -482.970
  O      822.565    -902.152    -482.125
  C      822.659    -903.637    -483.959
  C      823.475    -904.273    -484.823
  O      821.277    -908.654    -485.030
  O      821.389    -907.461    -487.285
  H      820.379    -908.313    -485.093
  H      828.344    -904.762    -485.138
  H      825.036    -902.018    -482.295
  H      821.585    -903.773    -483.957
  H      823.064    -904.957    -485.559
  H      826.339    -904.101    -486.248
  H      826.721    -905.527    -483.819
  H      825.244    -907.287    -484.466
  H      826.440    -907.027    -487.269
  H      824.089    -907.683    -487.931
  H      824.999    -909.000    -487.130
  P      826.591    -909.544    -484.301
  C      828.815    -910.023    -482.971
  O      827.926    -910.382    -484.026
  O      825.894    -910.277    -485.530
  O      825.712    -909.319    -483.098
  H      826.259    -909.991    -486.391
  H      829.641    -910.703    -482.954
  H      828.296    -910.069    -482.036
  H      829.175    -909.028    -483.131

 6  7  8  9  10  11  12  13  14  15  16  27  31  32  33  34  35 0
 6-311+G(2d,p)
 ****
 36  37 0
 6-311+G(2d,p)
 ****
 1  2  3  4  5  17  18  19  20  21  22  23  24  25 0
 3-21G
 ****
 26  28  29  30  38  39  40  41  42  43  44  45 0
 3-21G
 ****


