%nproc=1
%NoSave
%Mem=1900MB
#P OB98/GEN NMR

erre ene a

0 1
  C     -251.524    -154.038     -16.111
  O     -250.322    -154.814     -16.078
  P     -249.665    -155.307     -17.455
  C     -250.055    -157.121     -19.237
  O     -250.539    -156.517     -18.046
  C     -250.939    -158.288     -19.705
  O     -250.785    -159.433     -18.823
  C     -252.438    -157.957     -19.771
  O     -252.970    -158.671     -20.896
  C     -252.956    -158.538     -18.473
  O     -254.359    -158.736     -18.486
  C     -252.101    -159.814     -18.377
  N     -252.078    -160.371     -17.037
  C     -253.026    -161.353     -16.737
  O     -253.898    -161.644     -17.553
  N     -252.971    -161.965     -15.506
  C     -252.145    -161.523     -14.604
  N     -252.112    -162.157     -13.405
  C     -251.263    -160.356     -14.825
  C     -251.259    -159.853     -16.057
  O     -248.195    -155.551     -17.413
  O     -250.016    -154.100     -18.461
  H     -254.628    -159.204     -17.669
  H     -249.278    -153.994     -19.093
  H     -250.658    -159.962     -14.022
  H     -250.640    -159.013     -16.325
  H     -252.482    -160.581     -19.073
  H     -252.716    -157.858     -17.644
  H     -252.646    -156.889     -19.897
  H     -250.584    -158.594     -20.701
  H     -252.746    -162.938     -13.251
  H     -249.037    -157.483     -19.068
  H     -251.459    -161.898     -12.665
  H     -249.973    -156.347     -20.017
  P     -253.364    -157.858     -22.222
  C     -255.275    -156.240     -22.948
  O     -254.721    -157.059     -21.930
  O     -253.880    -159.032     -23.189
  O     -252.250    -157.104     -22.885
  H     -253.767    -158.753     -24.121
  H     -256.308    -156.003     -22.682
  H     -255.266    -156.755     -23.912
  H     -254.704    -155.307     -23.027
  H     -251.820    -153.797     -15.112
  H     -252.299    -154.601     -16.587
  H     -251.351    -153.136     -16.659

 3  4  5  6  7  8  9  10  11  12  13  23  27  28  29  30  32 0
 6-311+G(2d,p)
 ****
 34  35 0
 6-311+G(2d,p)
 ****
 1  2  14  15  16  17  18  19  20  21  22  24  25  26 0
 3-21G
 ****
 31  33  36  37  38  39  40  41  42  43  44  45  46 0
 3-21G
 ****


