%nproc=1
%NoSave
%Mem=1900MB
#P OB98/GEN NMR

erre ene a

0 1
  C     -124.076     198.371     -62.849
  O     -125.341     197.850     -63.200
  H     -123.375     197.539     -62.739
  H     -124.130     198.910     -61.897
  H     -123.708     199.035     -63.637
  P     -126.581     198.866     -63.307
  C     -128.008     200.076     -61.510
  O     -126.810     199.370     -61.794
  C     -127.775     201.081     -60.380
  O     -126.832     202.099     -60.783
  C     -129.018     201.858     -59.947
  O     -129.924     201.083     -59.179
  C     -128.368     202.965     -59.135
  O     -127.955     202.448     -57.856
  C     -127.137     203.301     -60.018
  N     -127.374     204.432     -60.916
  C     -127.803     205.630     -60.322
  O     -127.968     205.696     -59.102
  N     -128.074     206.708     -61.127
  C     -127.941     206.600     -62.417
  N     -128.271     207.689     -63.171
  C     -127.479     205.368     -63.082
  C     -127.219     204.335     -62.281
  O     -127.800     198.351     -63.998
  O     -125.966     200.177     -63.993
  H     -127.854     203.215     -57.261
  H     -126.699     200.832     -64.092
  H     -127.397     205.331     -64.157
  H     -126.886     203.387     -62.698
  H     -126.261     203.518     -59.395
  H     -129.034     203.812     -58.944
  H     -129.521     202.305     -60.812
  H     -127.324     200.535     -59.540
  H     -128.624     208.503     -62.684
  H     -128.777     199.349     -61.236
  H     -128.463     207.601     -64.164
  H     -128.340     200.627     -62.399
  P     -131.317     201.761     -58.752
  C     -132.054     203.472     -56.924
  O     -130.990     202.759     -57.535
  O     -132.098     200.556     -58.050
  O     -132.103     202.388     -59.863
  H     -132.687     200.101     -58.686
  H     -131.667     204.086     -56.138
  H     -132.762     202.779     -56.519
  H     -132.536     204.088     -57.654

 6  7  8  9  10  11  12  13  14  15  16  26  30  31  32  33  35 0
 6-311+G(2d,p)
 ****
 37  38 0
 6-311+G(2d,p)
 ****
 1  2  3  4  5  17  18  19  20  21  22  23  24  25 0
 3-21G
 ****
 27  28  29  34  36  39  40  41  42  43  44  45  46 0
 3-21G
 ****


