%nproc=1
%NoSave
%Mem=1900MB
#P OB98/GEN NMR

erre ene a

0 1
  C        3.532      16.397      76.780
  O        3.029      16.155      78.100
  P        1.849      17.016      78.765
  C        3.062      18.631      80.368
  O        2.395      18.483      79.122
  C        3.080      20.091      80.835
  O        1.731      20.520      81.191
  C        3.982      20.357      82.053
  O        4.601      21.629      81.834
  C        2.970      20.416      83.187
  O        3.458      21.052      84.353
  C        1.832      21.159      82.481
  N        0.546      21.138      83.170
  C       -0.200      22.323      83.194
  O        0.233      23.364      82.704
  N       -1.433      22.308      83.801
  C       -1.881      21.219      84.341
  N       -3.113      21.273      84.915
  C       -1.123      19.958      84.356
  C        0.067      19.988      83.758
  O        1.188      16.334      79.919
  O        0.795      17.276      77.588
  H       -0.108      17.261      77.957
  H        2.720      21.127      84.986
  H       -1.536      19.070      84.811
  H        0.675      19.091      83.701
  H        2.133      22.197      82.301
  H        2.686      19.395      83.457
  H        4.764      19.604      82.193
  H        3.393      20.713      79.987
  H       -3.609      22.156      84.876
  H        4.093      18.285      80.253
  H       -3.561      20.484      85.356
  H        2.569      17.997      81.114
  P        6.029      21.702      81.109
  C        7.495      21.905      83.253
  O        7.122      21.130      82.133
  O        6.338      23.277      81.148
  O        6.084      21.201      79.703
  H        6.944      23.501      80.419
  H        7.532      21.256      84.131
  H        6.792      22.718      83.448
  H        8.489      22.325      83.081
  H        4.312      15.698      76.562
  H        3.919      17.393      76.723
  H        2.740      16.281      76.070

 3  4  5  6  7  8  9  10  11  12  13  24  27  28  29  30  32 0
 6-311+G(2d,p)
 ****
 34  35 0
 6-311+G(2d,p)
 ****
 1  2  14  15  16  17  18  19  20  21  22  23  25  26 0
 3-21G
 ****
 31  33  36  37  38  39  40  41  42  43  44  45  46 0
 3-21G
 ****


