%nproc=1
%NoSave
%Mem=1900MB
#P OB98/GEN NMR

erre ene a

0 1
  C     -209.534     520.963    -492.442
  O     -209.591     519.751    -493.176
  P     -208.208     519.136    -493.715
  C     -206.640     519.587    -495.736
  O     -207.766     520.021    -494.976
  C     -206.041     520.759    -496.526
  O     -206.920     521.071    -497.641
  C     -205.840     522.045    -495.714
  O     -204.652     522.678    -496.224
  C     -207.083     522.838    -496.073
  O     -206.985     524.221    -495.775
  C     -207.210     522.492    -497.556
  N     -209.867     525.489    -500.743
  C     -208.541     525.399    -500.489
  N     -207.904     524.574    -499.626
  C     -208.793     523.767    -499.010
  C     -210.163     523.745    -499.155
  C     -210.711     524.663    -500.071
  N     -212.058     524.761    -500.330
  N     -210.733     522.800    -498.330
  C     -209.718     522.256    -497.693
  N     -208.518     522.785    -498.091
  O     -208.669     517.752    -494.382
  O     -207.157     518.933    -492.672
  H     -206.340     524.650    -496.360
  H     -208.013     517.046    -494.207
  H     -207.902     526.088    -501.040
  H     -209.795     521.475    -496.943
  H     -206.473     523.021    -498.170
  H     -207.926     522.451    -495.506
  H     -205.720     521.860    -494.641
  H     -205.086     520.425    -496.955
  H     -206.957     518.825    -496.443
  H     -212.366     525.581    -500.849
  H     -212.689     524.297    -499.674
  H     -205.901     519.146    -495.062
  P     -203.634     523.356    -495.184
  C     -203.455     525.857    -494.620
  O     -204.324     524.765    -494.835
  O     -202.456     523.805    -496.171
  O     -203.201     522.509    -494.032
  H     -202.794     524.302    -496.932
  H     -204.056     526.768    -494.496
  H     -202.788     525.989    -495.481
  H     -202.867     525.695    -493.711
  H     -210.523     521.250    -492.150
  H     -209.106     521.730    -493.053
  H     -208.931     520.823    -491.569

 3  4  5  6  7  8  9  10  11  12  22  25  29  30  31  32 0
 6-311+G(2d,p)
 ****
 33  36  37 0
 6-311+G(2d,p)
 ****
 1  2  13  14  15  16  17  18  19  20  21  23  24  26 0
 3-21G
 ****
 27  28  34  35  38  39  40  41  42  43  44  45  46  47  48 0
 3-21G
 ****


