%nproc=1
%NoSave
%Mem=1900MB
#P OB98/GEN NMR

erre ene a

0 1
  C      -76.986     360.565     204.297
  O      -78.199     361.332     204.215
  P      -78.225     362.717     205.044
  C      -76.790     363.785     203.156
  O      -77.919     363.913     204.021
  C      -76.642     364.985     202.217
  O      -77.701     364.947     201.225
  C      -76.722     366.354     202.908
  O      -75.806     367.245     202.250
  C      -78.130     366.830     202.575
  O      -78.248     368.250     202.655
  C      -78.299     366.252     201.172
  N      -81.611     367.524     197.557
  C      -80.234     367.670     197.589
  N      -79.672     368.258     196.502
  N      -79.490     367.276     198.582
  C      -80.183     366.675     199.580
  C      -81.544     366.464     199.668
  C      -82.372     366.949     198.576
  O      -83.595     366.897     198.518
  N      -81.878     365.829     200.837
  C      -80.729     365.655     201.461
  N      -79.673     366.166     200.739
  O      -76.907     362.620     205.947
  O      -79.448     362.885     205.881
  H      -77.491     368.630     202.154
  H      -77.139     362.714     206.893
  H      -82.153     367.872     196.778
  H      -80.607     365.199     202.435
  H      -77.745     366.849     200.430
  H      -78.841     366.384     203.285
  H      -80.185     368.531     195.680
  H      -76.521     366.334     203.983
  H      -78.660     368.329     196.486
  H      -75.694     364.884     201.679
  H      -76.896     362.866     202.563
  H      -75.887     363.677     203.772
  P      -74.810     368.075     203.209
  C      -73.474     365.916     203.812
  O      -73.448     367.222     203.265
  O      -75.445     367.872     204.668
  O      -74.665     369.520     202.840
  H      -75.214     368.625     205.237
  H      -74.499     365.556     203.969
  H      -72.951     365.932     204.779
  H      -72.962     365.234     203.131
  H      -77.086     359.675     203.711
  H      -76.799     360.302     205.317
  H      -76.170     361.147     203.924

 3  4  5  6  7  8  9  10  11  12  23  26  30  31  33  0
 6-311+G(2d,p)
 ****
 35  36  37  38 0
 6-311+G(2d,p)
 ****
 1  2  13  14  15  16  17  18  19  20  21  22  24  25  27  28  29 0
 3-21G
 ****
 32  34  39  40  41  42  43  44  45  46  47  48  49 0
 3-21G
 ****


