%nproc=1
%NoSave
%Mem=1900MB
#P OB98/GEN NMR

erre ene a

0 1
  C      231.008      -8.532    -136.599
  O      231.464      -7.363    -135.947
  H      230.281      -9.034    -135.954
  H      231.842      -9.214    -136.787
  H      230.521      -8.267    -137.543
  P      232.621      -6.528    -136.680
  C      235.204      -6.729    -136.903
  O      234.000      -7.296    -136.398
  C      236.367      -7.098    -135.985
  O      236.153      -6.523    -134.670
  C      236.522      -8.595    -135.749
  O      237.167      -9.255    -136.826
  C      237.361      -8.600    -134.481
  O      238.759      -8.468    -134.770
  C      236.830      -7.371    -133.719
  N      235.959      -7.757    -132.610
  C      236.589      -7.906    -131.376
  O      237.793      -7.729    -131.204
  N      235.786      -8.307    -130.341
  C      234.457      -8.619    -130.432
  O      233.809      -9.026    -129.476
  C      233.850      -8.457    -131.763
  C      234.619      -8.044    -132.780
  O      232.733      -5.203    -135.789
  O      232.360      -6.215    -138.115
  H      232.339      -4.448    -136.266
  H      239.072      -9.363    -135.010
  H      236.219      -8.419    -129.440
  H      232.800      -8.696    -131.872
  H      234.197      -7.930    -133.774
  H      237.662      -6.783    -133.314
  H      237.232      -9.532    -133.933
  H      235.547      -9.050    -135.531
  H      237.291      -6.675    -136.401
  H      235.112      -5.639    -136.939
  H      235.375      -7.102    -137.919
  P      236.600     -10.691    -137.268
  C      236.144     -12.922    -135.948
  O      236.730     -11.630    -135.975
  O      237.770     -11.178    -138.247
  O      235.244     -10.622    -137.886
  H      238.627     -10.779    -138.012
  H      236.343     -13.384    -135.004
  H      236.561     -13.519    -136.732
  H      235.087     -12.837    -136.088

 6  7  8  9  10  11  12  13  14  15  16  27  31  32  33  34  35 0
 6-311+G(2d,p)
 ****
 36  37 0
 6-311+G(2d,p)
 ****
 1  2  3  4  5  17  18  19  20  21  22  23  24  25 0
 3-21G
 ****
 26  28  29  30  38  39  40  41  42  43  44  45 0
 3-21G
 ****


