%nproc=1
%NoSave
%Mem=1900MB
#P OB98/GEN NMR

erre ene a

0 1
  C     -861.796    -169.062     104.685
  O     -862.987    -168.390     105.049
  H     -861.196    -168.396     104.057
  H     -862.028    -169.965     104.116
  H     -861.222    -169.320     105.577
  P     -864.057    -169.246     105.888
  C     -863.872    -167.839     108.077
  O     -863.576    -169.061     107.408
  C     -863.852    -168.062     109.588
  O     -864.884    -169.000     109.980
  C     -862.549    -168.656     110.109
  O     -861.516    -167.694     110.232
  C     -863.005    -169.167     111.462
  O     -863.141    -168.061     112.379
  C     -864.386    -169.763     111.105
  N     -864.328    -171.186     110.773
  C     -865.477    -171.744     110.194
  O     -866.475    -171.054     109.993
  N     -865.475    -173.080     109.886
  C     -864.424    -173.802     110.118
  N     -864.483    -175.128     109.801
  C     -863.190    -173.255     110.711
  C     -863.210    -171.957     111.007
  O     -863.648    -170.765     105.580
  O     -865.495    -168.929     105.637
  H     -862.318    -167.541     112.314
  H     -864.174    -171.375     106.156
  H     -862.337    -173.895     110.895
  H     -862.343    -171.484     111.451
  H     -865.096    -169.626     111.930
  H     -862.305    -169.876     111.917
  H     -862.222    -169.508     109.505
  H     -864.076    -167.103     110.071
  H     -865.365    -175.487     109.458
  H     -864.861    -167.503     107.762
  H     -863.788    -175.790     110.119
  H     -863.133    -167.081     107.815
  P     -860.046    -168.223     110.612
  C     -859.297    -168.484     108.135
  O     -859.544    -169.131     109.378
  O     -860.332    -169.299     111.756
  O     -859.091    -167.163     111.061
  H     -859.653    -169.262     112.455
  H     -858.972    -169.206     107.415
  H     -858.537    -167.742     108.264
  H     -860.196    -168.017     107.791

 6  7  8  9  10  11  12  13  14  15  16  26  30  31  32  33  35 0
 6-311+G(2d,p)
 ****
 37  38 0
 6-311+G(2d,p)
 ****
 1  2  3  4  5  17  18  19  20  21  22  23  24  25 0
 3-21G
 ****
 27  28  29  34  36  39  40  41  42  43  44  45  46 0
 3-21G
 ****


