%nproc=1
%NoSave
%Mem=1900MB
#P OB98/GEN NMR

erre ene a

0 1
  C      303.554     537.765     561.992
  O      303.427     537.201     563.307
  P      302.273     536.156     563.682
  C      302.763     536.661     566.165
  O      302.497     535.657     565.188
  C      303.807     536.206     567.187
  O      303.274     535.176     568.039
  C      305.078     535.611     566.571
  O      305.932     536.642     566.117
  C      305.620     534.799     567.742
  O      306.323     535.648     568.667
  C      304.326     534.271     568.393
  N      304.826     529.292     569.487
  C      305.245     530.406     570.127
  N      305.081     531.695     569.772
  C      304.373     531.777     568.633
  C      303.882     530.737     567.858
  C      304.126     529.435     568.335
  N      303.707     528.306     567.670
  N      303.226     531.218     566.744
  C      303.305     532.527     566.848
  N      303.998     532.919     567.967
  O      302.093     535.055     562.690
  O      300.935     537.043     563.790
  H      305.675     536.258     569.058
  H      300.158     536.498     563.578
  H      305.790     530.236     571.055
  H      302.894     533.229     566.132
  H      304.397     534.266     569.487
  H      306.310     534.012     567.429
  H      304.818     534.935     565.757
  H      304.058     537.065     567.821
  H      301.826     536.901     566.675
  H      303.963     527.406     568.056
  H      303.237     528.401     566.781
  H      303.117     537.560     565.645
  P      307.083     536.312     565.054
  C      308.765     537.902     566.177
  O      308.044     537.599     564.981
  O      306.615     535.810     563.733
  O      307.995     535.235     565.802
  H      308.404     534.639     565.134
  H      308.107     538.431     566.871
  H      309.601     538.552     565.910
  H      309.147     536.991     566.646
  H      304.389     538.433     561.970
  H      302.661     538.301     561.746
  H      303.706     536.980     561.281

 3  4  5  6  7  8  9  10  11  12  22  25  29  30  31  32 0
 6-311+G(2d,p)
 ****
 33  36  37 0
 6-311+G(2d,p)
 ****
 1  2  13  14  15  16  17  18  19  20  21  23  24  26 0
 3-21G
 ****
 27  28  34  35  38  39  40  41  42  43  44  45  46  47  48 0
 3-21G
 ****


