%nproc=1
%NoSave
%Mem=1900MB
#P OB98/GEN NMR

erre ene a

0 1
  C      452.745    -304.591     333.554
  O      452.232    -303.796     332.504
  P      453.223    -303.192     331.403
  C      451.733    -301.099     331.284
  O      452.401    -302.116     330.542
  C      451.444    -299.892     330.390
  O      452.678    -299.274     329.969
  C      450.699    -300.235     329.105
  O      449.326    -300.464     329.369
  C      450.992    -299.007     328.256
  O      450.100    -297.931     328.598
  C      452.429    -298.669     328.678
  N      456.267    -297.195     325.658
  C      455.365    -296.493     326.375
  N      454.343    -296.959     327.127
  C      454.292    -298.299     327.068
  C      455.120    -299.149     326.352
  C      456.167    -298.546     325.631
  N      457.130    -299.256     324.944
  N      454.726    -300.465     326.524
  C      453.678    -300.405     327.318
  N      453.421    -299.126     327.728
  O      453.980    -304.195     330.602
  O      454.224    -302.279     332.257
  H      450.496    -297.110     328.254
  H      455.136    -302.607     332.144
  H      455.484    -295.411     326.352
  H      453.089    -301.254     327.638
  H      452.574    -297.589     328.803
  H      450.875    -299.199     327.188
  H      451.154    -301.118     328.635
  H      450.882    -299.157     330.981
  H      452.381    -300.798     332.113
  H      457.914    -298.731     324.589
  H      457.249    -300.240     325.166
  H      450.799    -301.499     331.692
  P      448.684    -301.896     329.057
  C      446.327    -301.284     328.247
  O      447.107    -301.772     329.322
  O      449.349    -303.059     329.712
  O      448.762    -302.005     327.459
  H      448.884    -302.941     327.205
  H      446.436    -300.199     328.177
  H      445.279    -301.525     328.437
  H      446.634    -301.744     327.305
  H      451.943    -304.905     334.189
  H      453.448    -304.019     334.123
  H      453.233    -305.451     333.145

 3  4  5  6  7  8  9  10  11  12  22  25  29  30  31  32 0
 6-311+G(2d,p)
 ****
 33  36  37 0
 6-311+G(2d,p)
 ****
 1  2  13  14  15  16  17  18  19  20  21  23  24  26 0
 3-21G
 ****
 27  28  34  35  38  39  40  41  42  43  44  45  46  47  48 0
 3-21G
 ****


