%nproc=1
%NoSave
%Mem=1900MB
#P OB98/GEN NMR

erre ene a

0 1
  C      -78.797     276.971    1303.545
  O      -78.815     277.121    1304.945
  H      -79.688     277.451    1303.127
  H      -78.816     275.912    1303.270
  H      -77.911     277.452    1303.117
  P      -77.644     276.445    1305.809
  C      -76.456     278.665    1306.395
  O      -76.376     277.419    1305.710
  C      -75.135     279.435    1306.268
  O      -74.060     278.521    1306.625
  C      -74.881     279.938    1304.839
  O      -74.596     281.339    1304.792
  C      -73.838     278.969    1304.307
  O      -73.021     279.502    1303.281
  C      -73.081     278.535    1305.569
  N      -72.433     277.240    1305.453
  C      -71.131     277.220    1304.953
  O      -70.483     278.214    1304.611
  N      -70.549     275.977    1304.851
  C      -71.142     274.786    1305.178
  O      -70.575     273.709    1305.064
  C      -72.528     274.875    1305.668
  C      -73.101     276.079    1305.788
  O      -77.359     275.016    1305.501
  O      -78.125     276.635    1307.328
  H      -72.263     278.885    1303.167
  H      -78.445     275.778    1307.677
  H      -69.606     275.954    1304.513
  H      -73.032     273.953    1305.931
  H      -74.115     276.174    1306.151
  H      -72.316     279.280    1305.829
  H      -74.353     278.098    1303.877
  H      -75.795     279.855    1304.236
  H      -75.139     280.254    1306.998
  H      -76.679     278.456    1307.452
  H      -77.273     279.263    1305.971
  P      -75.675     282.504    1304.978
  C      -74.856     283.697    1307.173
  O      -75.798     282.844    1306.535
  O      -76.962     282.333    1304.217
  O      -74.932     283.804    1304.380
  H      -75.629     284.375    1303.992
  H      -75.110     283.799    1308.207
  H      -74.872     284.659    1306.705
  H      -73.877     283.275    1307.086

 6  7  8  9  10  11  12  13  14  15  16  26  31  32  33  34  35 0
 6-311+G(2d,p)
 ****
 36  37 0
 6-311+G(2d,p)
 ****
 1  2  3  4  5  17  18  19  20  21  22  23  24  25 0
 3-21G
 ****
 27  28  29  30  38  39  40  41  42  43  44  45 0
 3-21G
 ****


