%nproc=1
%NoSave
%Mem=1900MB
#P OB98/GEN NMR

erre ene a

0 1
  C      299.718    -322.318    -181.387
  O      299.052    -321.251    -182.032
  H      300.435    -321.932    -180.656
  H      298.976    -322.930    -180.867
  H      300.234    -322.938    -182.125
  P      299.982    -320.171    -182.767
  C      301.964    -318.784    -181.835
  O      300.655    -319.287    -181.609
  C      302.435    -317.982    -180.627
  O      302.671    -318.859    -179.507
  C      303.746    -317.233    -180.834
  O      303.561    -316.027    -181.568
  C      304.139    -316.953    -179.391
  O      303.409    -315.812    -178.901
  C      303.671    -318.225    -178.667
  N      307.441    -319.580    -175.455
  C      306.548    -318.564    -175.420
  N      305.584    -318.256    -176.312
  C      305.574    -319.141    -177.323
  C      306.419    -320.225    -177.492
  C      307.393    -320.430    -176.503
  N      308.308    -321.461    -176.555
  N      306.101    -320.915    -178.642
  C      305.080    -320.260    -179.160
  N      304.733    -319.175    -178.404
  O      298.931    -319.163    -183.435
  O      300.927    -320.725    -183.781
  H      302.477    -315.943    -179.165
  H      299.286    -318.855    -184.289
  H      306.619    -317.907    -174.557
  H      304.568    -320.537    -180.074
  H      303.180    -317.988    -177.714
  H      305.203    -316.737    -179.268
  H      304.503    -317.873    -181.298
  H      301.630    -317.289    -180.348
  H      301.956    -318.134    -182.716
  H      308.843    -321.674    -175.733
  H      308.260    -322.102    -177.343
  H      302.638    -319.627    -182.021
  P      304.823    -315.455    -182.379
  C      307.296    -315.238    -181.626
  O      305.926    -315.103    -181.268
  O      304.316    -314.016    -182.866
  O      305.278    -316.298    -183.521
  H      304.804    -313.745    -183.667
  H      307.911    -314.971    -180.792
  H      307.514    -314.592    -182.451
  H      307.494    -316.252    -181.905

 6  7  8  9  10  11  12  13  14  15  25  28  32  33  34  35 0
 6-311+G(2d,p)
 ****
 36  39  40 0
 6-311+G(2d,p)
 ****
 1  2  3  4  5  16  17  18  19  20  21  22  23  24 0
 3-21G
 ****
 26  27  29  30  31  37  38  41  42  43  44  45  46  47  48 0
 3-21G
 ****


