%nproc=1
%NoSave
%Mem=1900MB
#P OB98/GEN NMR

erre ene a

0 1
  C     1066.469    -758.689      26.867
  O     1066.469    -759.620      25.806
  P     1065.594    -760.965      25.910
  C     1067.133    -762.173      24.246
  O     1066.556    -762.216      25.528
  C     1068.070    -763.348      24.071
  O     1069.279    -763.164      24.868
  C     1067.515    -764.684      24.515
  O     1066.608    -765.206      23.545
  C     1068.797    -765.514      24.694
  O     1069.238    -766.025      23.405
  C     1069.761    -764.472      25.222
  N     1073.262    -764.427      28.948
  C     1073.398    -764.460      27.596
  N     1072.403    -764.504      26.669
  C     1071.185    -764.529      27.272
  C     1070.919    -764.550      28.604
  C     1072.035    -764.474      29.513
  N     1071.921    -764.374      30.860
  N     1069.550    -764.616      28.831
  C     1069.014    -764.657      27.631
  N     1069.970    -764.541      26.649
  O     1064.276    -760.938      25.207
  O     1065.383    -761.144      27.505
  H     1070.155    -766.344      23.524
  H     1064.423    -761.121      27.694
  H     1074.404    -764.444      27.216
  H     1067.947    -764.758      27.429
  H     1070.763    -764.591      24.764
  H     1068.645    -766.370      25.353
  H     1067.028    -764.574      25.482
  H     1068.395    -763.416      23.028
  H     1067.702    -761.227      24.146
  H     1072.755    -764.159      31.380
  H     1071.031    -764.077      31.267
  H     1066.344    -762.201      23.472
  P     1065.366    -766.095      24.027
  C     1065.132    -767.214      21.704
  O     1065.353    -767.392      23.117
  O     1064.033    -765.380      24.109
  O     1065.824    -766.663      25.452
  H     1065.038    -766.762      26.019
  H     1064.068    -767.047      21.549
  H     1065.479    -768.105      21.205
  H     1065.711    -766.350      21.350
  H     1067.104    -757.865      26.618
  H     1066.830    -759.162      27.756
  H     1065.473    -758.335      27.031

 3  4  5  6  7  8  9  10  11  12  22  25  29  30  31  32 0
 6-311+G(2d,p)
 ****
 33  36  37 0
 6-311+G(2d,p)
 ****
 1  2  13  14  15  16  17  18  19  20  21  23  24  26 0
 3-21G
 ****
 27  28  34  35  38  39  40  41  42  43  44  45  46  47  48 0
 3-21G
 ****


