%nproc=1
%NoSave
%Mem=1900MB
#P OB98/GEN NMR

erre ene a

0 1
  C      486.409     255.908    1408.232
  O      487.521     255.072    1408.530
  P      487.789     253.662    1407.803
  C      489.874     254.588    1406.550
  O      488.607     253.921    1406.421
  C      490.458     254.916    1405.160
  O      489.508     255.655    1404.358
  C      491.718     255.770    1405.192
  O      492.850     255.008    1405.587
  C      491.743     256.323    1403.777
  O      492.348     255.333    1402.869
  C      490.243     256.492    1403.452
  N      489.850     257.903    1403.553
  C      490.209     258.721    1402.479
  O      490.896     258.293    1401.554
  N      489.784     260.050    1402.512
  C      489.149     260.500    1403.527
  N      488.761     261.812    1403.491
  C      488.796     259.694    1404.712
  C      489.190     258.415    1404.658
  O      486.561     252.817    1407.634
  O      488.870     252.907    1408.719
  H      493.196     255.047    1403.312
  H      488.728     251.935    1408.650
  H      488.290     260.104    1405.568
  H      488.970     257.732    1405.483
  H      490.030     256.136    1402.450
  H      492.355     257.236    1403.679
  H      491.581     256.620    1405.905
  H      490.670     253.962    1404.634
  H      488.998     262.342    1402.662
  H      490.548     253.914    1407.073
  H      488.246     262.254    1404.245
  H      489.745     255.530    1407.140
  P      493.157     254.744    1407.157
  C      493.044     252.166    1406.950
  O      492.501     253.325    1407.547
  O      492.809     255.884    1408.081
  O      494.732     254.417    1407.188
  H      495.101     254.727    1408.021
  H      492.796     251.296    1407.559
  H      494.141     252.269    1406.847
  H      492.612     252.041    1405.948
  H      486.449     256.786    1408.843
  H      485.501     255.377    1408.429
  H      486.441     256.190    1407.200

 3  4  5  6  7  8  9  10  11  12  13  23  27  28  29  30  32 0
 6-311+G(2d,p)
 ****
 34  35 0
 6-311+G(2d,p)
 ****
 1  2  14  15  16  17  18  19  20  21  22  24  25  26 0
 3-21G
 ****
 31  33  36  37  38  39  40  41  42  43  44  45  46 0
 3-21G
 ****


