%nproc=1
%NoSave
%Mem=1900MB
#P OB98/GEN NMR

erre ene a

0 1
  C      972.461    -147.670      71.628
  O      972.499    -146.283      71.921
  P      972.139    -145.214      70.782
  C      970.924    -143.779      72.579
  O      971.853    -143.820      71.517
  C      970.610    -142.322      72.985
  O      971.786    -141.784      73.626
  C      970.310    -141.389      71.818
  O      969.643    -140.229      72.332
  C      971.700    -141.008      71.347
  O      971.706    -139.812      70.582
  C      972.499    -140.948      72.681
  N      973.878    -141.432      72.503
  C      974.843    -140.471      72.209
  O      974.604    -139.265      72.166
  N      976.084    -140.952      71.880
  C      976.414    -142.274      71.777
  O      977.412    -142.682      71.189
  C      975.439    -143.228      72.329
  C      974.216    -142.767      72.637
  O      970.682    -145.694      70.291
  O      973.104    -145.150      69.653
  H      972.646    -139.576      70.420
  H      970.767    -146.246      69.496
  H      976.739    -140.270      71.522
  H      975.719    -144.264      72.408
  H      973.454    -143.448      72.995
  H      972.539    -139.923      73.080
  H      972.092    -141.819      70.716
  H      969.717    -141.840      71.016
  H      969.793    -142.320      73.710
  H      971.315    -144.339      73.433
  H      969.991    -144.270      72.283
  P      968.340    -139.705      71.553
  C      967.675    -138.843      73.871
  O      967.684    -138.584      72.483
  O      967.414    -140.763      71.055
  O      968.963    -138.845      70.348
  H      968.294    -138.728      69.657
  H      967.703    -137.884      74.411
  H      968.534    -139.442      74.174
  H      966.756    -139.366      74.136
  H      972.729    -148.227      72.502
  H      973.153    -147.887      70.841
  H      971.473    -147.943      71.320

 3  4  5  6  7  8  9  10  11  12  13  23  28  29  30  31  32 0
 6-311+G(2d,p)
 ****
 33  34 0
 6-311+G(2d,p)
 ****
 1  2  14  15  16  17  18  19  20  21  22  24  25  26  27 0
 3-21G
 ****
 35  36  37  38  39  40  41  42  43  44  45 0
 3-21G
 ****


