%nproc=1
%NoSave
%Mem=1900MB
#P OB98/GEN NMR

erre ene a

0 1
  C     -155.997    -499.967    -896.100
  O     -154.722    -500.564    -896.270
  P     -153.877    -500.168    -897.590
  C     -151.321    -499.903    -898.000
  O     -152.408    -499.783    -897.070
  C     -150.246    -500.796    -897.420
  O     -149.537    -500.142    -896.350
  C     -150.766    -502.100    -896.810
  O     -151.030    -503.098    -897.790
  C     -149.587    -502.537    -895.940
  O     -148.582    -503.150    -896.740
  C     -149.089    -501.164    -895.410
  N     -147.841    -500.665    -890.530
  C     -147.024    -500.787    -891.640
  N     -145.708    -500.873    -891.430
  N     -147.478    -500.859    -892.880
  C     -148.830    -500.778    -892.960
  C     -149.735    -500.635    -891.900
  C     -149.236    -500.573    -890.560
  O     -149.888    -500.520    -889.520
  N     -151.031    -500.593    -892.370
  C     -150.900    -500.696    -893.700
  N     -149.602    -500.855    -894.060
  O     -154.501    -498.745    -898.000
  O     -153.949    -501.153    -898.710
  H     -148.926    -504.029    -897.010
  H     -154.268    -498.542    -898.920
  H     -147.441    -500.625    -889.620
  H     -151.727    -500.678    -894.390
  H     -147.983    -501.120    -895.380
  H     -149.868    -503.237    -895.170
  H     -145.285    -500.893    -890.480
  H     -151.645    -501.926    -896.180
  H     -145.078    -501.033    -892.210
  H     -149.503    -501.036    -898.230
  H     -150.899    -498.910    -898.210
  H     -151.689    -500.308    -898.940
  P     -152.200    -504.141    -897.470
  C     -153.756    -505.583    -898.980
  O     -152.758    -504.602    -898.920
  O     -153.367    -503.205    -896.890
  O     -151.831    -505.227    -896.530
  H     -153.953    -503.717    -896.320
  H     -154.182    -505.589    -900.000
  H     -154.561    -505.396    -898.250
  H     -153.317    -506.570    -898.800
  H     -156.437    -500.319    -895.190
  H     -156.626    -500.228    -896.925
  H     -155.890    -498.903    -896.056

 3  4  5  6  7  8  9  10  11  12  23  26  30  31 0
 6-311+G(2d,p)
 ****
 33  35  36  37  38 0
 6-311+G(2d,p)
 ****
 1  2  13  14  15  16  17  18  19  20  21  22  24  25 0
 3-21G
 ****
 27  28  29  32  34  39  40  41  42  43  44  45  46  47  48  49 0
 3-21G
 ****


