%nproc=1
%NoSave
%Mem=1900MB
#P OB98/GEN NMR

erre ene a

0 1
  C     -198.164    -897.850     -92.634
  O     -196.830    -897.740     -92.179
  H     -198.835    -897.600     -91.808
  H     -198.375    -898.880     -92.960
  H     -198.347    -897.150     -93.459
  P     -195.685    -898.050     -93.252
  C     -195.653    -895.450     -93.491
  O     -195.525    -896.730     -94.131
  C     -194.917    -894.380     -94.289
  O     -193.553    -894.830     -94.537
  C     -195.541    -894.080     -95.663
  O     -195.260    -892.700     -95.995
  C     -194.730    -894.990     -96.582
  O     -194.918    -894.660     -97.933
  C     -193.344    -894.800     -95.975
  N     -189.256    -895.850     -98.859
  C     -189.922    -894.700     -98.622
  N     -190.993    -894.490     -97.841
  C     -191.366    -895.640     -97.222
  C     -190.762    -896.880     -97.329
  C     -189.657    -896.970     -98.202
  N     -188.979    -898.140     -98.431
  N     -191.417    -897.810     -96.553
  C     -192.391    -897.140     -95.973
  N     -192.403    -895.820     -96.364
  O     -196.397    -899.090     -94.261
  O     -194.413    -898.590     -92.699
  H     -194.735    -893.700     -98.080
  H     -196.170    -900.000     -94.003
  H     -189.556    -893.820     -99.156
  H     -193.111    -897.560     -95.281
  H     -192.925    -893.820     -96.231
  H     -195.069    -896.040     -96.461
  H     -196.626    -894.250     -95.706
  H     -194.831    -893.470     -93.682
  H     -195.238    -895.530     -92.491
  H     -196.729    -895.210     -93.423
  H     -188.208    -898.120     -99.085
  H     -189.283    -898.990     -97.983
  P     -196.416    -891.610     -95.881
  C     -195.412    -890.620     -93.670
  O     -196.547    -891.160     -94.342
  O     -197.739    -892.500     -96.062
  O     -196.378    -890.490     -96.880
  H     -198.462    -891.940     -96.438
  H     -195.677    -890.377     -92.662
  H     -195.085    -889.736     -94.176
  H     -194.622    -891.342     -93.667

 6  7  8  9  10  11  12  13  14  15  25  28  32  33  34  35 0
 6-311+G(2d,p)
 ****
 36  37  40 0
 6-311+G(2d,p)
 ****
 1  2  3  4  5  16  17  18  19  20  21  22  23  24 0
 3-21G
 ****
 26  27  29  30  31  38  39 41  42  43  44  45  46  47  48 0
 3-21G
 ****


