%nproc=1
%NoSave
%Mem=1900MB
#P OB98/GEN NMR

erre ene a

0 1
  C      -90.172     -91.818      96.072
  O      -89.513     -90.827      96.828
  H      -89.952     -92.795      96.511
  H      -89.800     -91.803      95.044
  H      -91.255     -91.670      96.074
  P      -90.009     -89.311      96.707
  C      -87.669     -88.459      96.026
  O      -89.044     -88.549      95.672
  C      -86.859     -87.723      94.958
  O      -86.959     -88.428      93.702
  C      -87.368     -86.301      94.710
  O      -86.818     -85.320      95.572
  C      -86.939     -86.061      93.264
  O      -85.607     -85.528      93.196
  C      -86.990     -87.462      92.643
  N      -89.266     -90.177      88.956
  C      -87.951     -90.224      89.380
  N      -87.143     -91.075      88.713
  N      -87.484     -89.491      90.357
  C      -88.386     -88.618      90.861
  C      -89.708     -88.466      90.508
  C      -90.236     -89.333      89.477
  O      -91.396     -89.342      89.077
  N      -90.305     -87.448      91.212
  C      -89.322     -86.933      91.922
  N      -88.160     -87.658      91.804
  O      -89.582     -88.666      98.113
  O      -91.477     -89.129      96.467
  H      -85.412     -85.322      92.261
  H      -90.216     -87.969      98.358
  H      -89.575     -90.785      88.219
  H      -89.408     -86.068      92.572
  H      -86.112     -87.651      92.012
  H      -87.594     -85.333      92.780
  H      -87.428     -91.598      87.901
  H      -88.461     -86.269      94.751
  H      -86.135     -91.002      88.865
  H      -85.799     -87.726      95.243
  H      -87.307     -89.482      96.131
  H      -87.557     -87.968      96.997
  P      -87.288     -83.795      95.487
  C      -84.992     -83.089      94.427
  O      -86.400     -83.056      94.387
  O      -86.759     -83.177      96.864
  O      -88.755     -83.584      95.306
  H      -87.478     -83.135      97.522
  H      -84.599     -82.533      93.602
  H      -84.657     -84.103      94.366
  H      -84.651     -82.655      95.344

 6  7  8  9  10  11  12  13  14  15  26  29  33  34 0
 6-311+G(2d,p)
 ****
 36  38  39  40  41 0
 6-311+G(2d,p)
 ****
 1  2  3  4  5  16  17  18  19  20  21  22  23  24  25 0
 3-21G
 ****
 27  28  30  31  32  35  37  42  43  44  45  46  47 0
 3-21G
 ****
 48  49 0
 3-21G
 ****


