%nproc=1
%NoSave
%Mem=1900MB
#P OB98/GEN NMR

erre ene a

0 1
  C      -26.381     -81.499    -134.486
  O      -27.394     -80.544    -134.845
  P      -27.299     -79.048    -134.267
  C      -28.505     -76.764    -134.684
  O      -28.414     -78.148    -134.989
  C      -29.581     -76.104    -135.551
  O      -29.143     -76.019    -136.926
  C      -30.900     -76.863    -135.601
  O      -31.664     -76.678    -134.422
  C      -31.547     -76.260    -136.843
  O      -32.195     -75.014    -136.532
  C      -30.326     -76.026    -137.755
  N      -30.223     -77.016    -138.823
  C      -31.350     -77.187    -139.619
  O      -32.411     -76.595    -139.422
  N      -31.231     -78.094    -140.636
  C      -30.141     -78.879    -140.888
  O      -30.101     -79.689    -141.805
  C      -29.011     -78.712    -139.963
  C      -29.104     -77.808    -138.987
  O      -25.950     -78.512    -134.950
  O      -27.222     -78.930    -132.781
  H      -31.713     -74.632    -135.773
  H      -25.546     -77.831    -134.381
  H      -32.026     -78.212    -141.244
  H      -28.136     -79.332    -140.113
  H      -28.277     -77.672    -138.296
  H      -30.380     -75.028    -138.208
  H      -32.306     -76.916    -137.279
  H      -30.711     -77.928    -135.778
  H      -29.739     -75.082    -135.181
  H      -27.543     -76.286    -134.885
  H      -28.741     -76.647    -133.622
  P      -31.909     -77.978    -133.511
  C      -33.340     -78.139    -131.329
  O      -33.215     -77.645    -132.644
  O      -30.687     -77.865    -132.483
  O      -31.946     -79.246    -134.298
  H      -30.461     -76.940    -132.283
  H      -32.371     -78.202    -130.829
  H      -33.799     -79.131    -131.358
  H      -33.987     -77.466    -130.760
  H      -26.594     -82.438    -134.953
  H      -26.369     -81.624    -133.423
  H      -25.426     -81.146    -134.814

 3  4  5  6  7  8  9  10  11  12  13  23  28  29  30  31  32 0
 6-311+G(2d,p)
 ****
 33  34 0
 6-311+G(2d,p)
 ****
 1  2  14  15  16  17  18  19  20  21  22  24  25  26 0
 3-21G
 ****
 27  35  36  37  38  39  40  41  42  43  44  45 0
 3-21G
 ****


