%nproc=1
%NoSave
%Mem=1900MB
#P OB98/GEN NMR

erre ene a

0 1
  C      389.263    -337.581     385.480
  O      389.602    -336.581     384.545
  H      389.391    -338.557     385.009
  H      388.216    -337.467     385.775
  H      389.900    -337.533     386.367
  P      389.945    -335.112     385.079
  C      390.867    -334.044     382.915
  O      389.795    -334.087     383.852
  C      390.365    -333.772     381.498
  O      389.362    -332.737     381.527
  C      391.479    -333.281     380.568
  O      392.218    -334.313     379.937
  C      390.696    -332.464     379.542
  O      390.238    -333.287     378.459
  C      389.508    -331.929     380.352
  N      389.763    -327.068     378.786
  C      389.790    -328.226     378.029
  N      389.942    -328.058     376.697
  N      389.695    -329.423     378.544
  C      389.648    -329.433     379.894
  C      389.638    -328.355     380.749
  C      389.666    -327.031     380.170
  O      389.628    -325.975     380.794
  N      389.625    -328.753     382.066
  C      389.720    -330.067     382.001
  N      389.656    -330.531     380.707
  O      391.535    -335.157     385.297
  O      389.251    -334.705     386.343
  H      389.683    -332.734     377.874
  H      391.778    -334.568     386.034
  H      389.809    -326.174     378.333
  H      389.791    -330.731     382.854
  H      388.571    -332.016     379.786
  H      391.324    -331.685     379.103
  H      390.104    -327.168     376.260
  H      392.156    -332.604     381.098
  H      390.157    -328.882     376.130
  H      389.886    -334.676     381.104
  H      391.355    -335.022     382.960
  H      391.602    -333.293     383.214
  P      393.780    -334.146     379.646
  C      393.948    -336.766     379.597
  O      394.334    -335.521     379.057
  O      394.417    -334.086     381.110
  O      394.155    -332.955     378.821
  H      394.589    -333.162     381.375
  H      394.432    -337.554     379.058
  H      392.887    -336.877     379.515
  H      394.233    -336.811     380.627

 6  7  8  9  10  11  12  13  14  15  26  29  33  34 0
 6-311+G(2d,p)
 ****
 36  38  39  40  41 0
 6-311+G(2d,p)
 ****
 1  2  3  4  5  16  17  18  19  20  21  22  23  24  25 0
 3-21G
 ****
 27  28  30  31  32  35  37  42  43  44  45  46  47 0
 3-21G
 ****
 48  49 0
 3-21G
 ****


