%nproc=1
%NoSave
%Mem=1900MB
#P OB98/GEN NMR

erre ene a

0 1
  C      -70.300     -15.693      81.578
  O      -69.499     -14.644      82.089
  H      -70.534     -15.478      80.533
  H      -71.235     -15.764      82.142
  H      -69.755     -16.639      81.631
  P      -69.073     -14.750      83.632
  C      -70.098     -12.970      85.208
  O      -70.322     -14.141      84.434
  C      -69.835     -11.771      84.301
  O      -70.613     -11.878      83.096
  C      -70.191     -10.425      84.920
  O      -69.131      -9.961      85.741
  C      -70.346      -9.564      83.675
  O      -69.046      -9.145      83.213
  C      -70.971     -10.541      82.663
  N      -74.900      -7.999      80.549
  C      -73.581      -7.712      80.622
  N      -72.603      -8.403      81.246
  C      -73.099      -9.506      81.832
  C      -74.421      -9.926      81.845
  C      -75.346      -9.121      81.160
  N      -76.690      -9.416      81.090
  N      -74.557     -11.103      82.551
  C      -73.328     -11.418      82.907
  N      -72.414     -10.466      82.528
  O      -67.734     -14.190      83.973
  O      -69.236     -16.324      83.885
  H      -68.560      -9.954      82.965
  H      -70.035     -16.660      83.442
  H      -73.272      -6.804      80.113
  H      -73.042     -12.330      83.420
  H      -70.558     -10.400      81.657
  H      -70.926      -8.659      83.860
  H      -71.147     -10.462      85.453
  H      -68.777     -11.796      84.008
  H      -69.244     -13.120      85.880
  H      -77.305      -8.693      80.749
  H      -77.037     -10.179      81.653
  H      -70.991     -12.799      85.817
  P      -69.420      -9.065      87.041
  C      -68.552      -6.645      87.015
  O      -69.508      -7.560      86.493
  O      -68.478      -9.292      88.170
  O      -70.937      -9.399      87.419
  H      -71.123      -9.112      88.335
  H      -68.707      -5.680      86.580
  H      -67.566      -6.987      86.781
  H      -68.664      -6.580      88.077

 6  7  8  9  10  11  12  13  14  15  25  28  32  33  34  35 0
 6-311+G(2d,p)
 ****
 36  39  40 0
 6-311+G(2d,p)
 ****
 1  2  3  4  5  16  17  18  19  20  21  22  23  24 0
 3-21G
 ****
 26  27  29  30  31  37  38  41  42  43  44  45  46  47 0
 3-21G
 ****
 48 0
 3-21G
 ****


