%nproc=1
%NoSave
%Mem=1900MB
#P OB98/GEN NMR

erre ene a

0 1
  C       25.720     -56.315    -342.697
  O       26.468     -57.324    -343.371
  P       27.737     -56.802    -344.212
  C       28.100     -55.962    -346.639
  O       27.309     -56.751    -345.757
  C       27.574     -56.062    -348.075
  O       27.763     -57.418    -348.604
  C       26.074     -55.729    -348.222
  O       25.909     -55.078    -349.485
  C       25.444     -57.113    -348.242
  O       24.105     -57.106    -348.726
  C       26.470     -57.859    -349.094
  N       23.929     -61.925    -350.857
  C       23.811     -60.600    -351.105
  N       24.521     -59.586    -350.587
  C       25.445     -60.037    -349.733
  C       25.688     -61.349    -349.357
  C       24.880     -62.326    -349.964
  N       24.970     -63.675    -349.695
  N       26.715     -61.420    -348.432
  C       27.040     -60.156    -348.192
  N       26.348     -59.299    -349.009
  O       28.766     -58.034    -344.138
  O       28.320     -55.534    -343.684
  H       23.802     -58.025    -348.863
  H       29.442     -57.865    -343.439
  H       23.028     -60.323    -351.808
  H       27.729     -59.820    -347.441
  H       26.407     -57.589    -350.155
  H       25.422     -57.513    -347.219
  H       25.689     -55.074    -347.423
  H       28.172     -55.379    -348.714
  H       29.147     -56.299    -346.613
  H       24.344     -64.299    -350.170
  H       25.663     -64.013    -349.038
  H       28.089     -54.917    -346.287
  P       25.598     -53.506    -349.512
  C       23.542     -52.095    -350.162
  O       24.071     -53.409    -350.039
  O       26.402     -53.055    -350.819
  O       25.958     -52.731    -348.275
  H       26.200     -53.638    -351.578
  H       22.548     -52.164    -350.594
  H       24.183     -51.485    -350.815
  H       23.449     -51.638    -349.165
  H       24.904     -56.767    -342.172
  H       25.340     -55.615    -343.412
  H       26.354     -55.806    -342.001

 3  4  5  6  7  8  9  10  11  12  22  25  29  30  31  32 0
 6-311+G(2d,p)
 ****
 33  36  37 0
 6-311+G(2d,p)
 ****
 1  2  13  14  15  16  17  18  19  20  21  23  24  26 0
 3-21G
 ****
 27  28  34  35  38  39  40  41  42  43  44  45  46  47  48 0
 3-21G
 ****


