%nproc=1
%NoSave
%Mem=1900MB
#P OB98/GEN NMR

erre ene a

0 1
  C      641.071      62.598     -75.788
  O      640.049      62.492     -76.760
  H      642.037      62.430     -76.273
  H      640.926      61.837     -75.010
  H      641.067      63.596     -75.338
  P      638.564      62.870     -76.296
  C      636.822      61.078     -75.488
  O      638.073      61.724     -75.280
  C      637.040      59.750     -76.209
  O      638.037      58.951     -75.546
  C      635.809      58.852     -76.226
  O      634.797      59.322     -77.084
  C      636.434      57.537     -76.677
  O      636.655      57.527     -78.098
  C      637.782      57.560     -75.914
  N      637.785      56.687     -74.748
  C      637.664      55.317     -75.014
  O      637.584      54.916     -76.179
  N      637.614      54.441     -73.959
  C      637.703      54.891     -72.743
  N      637.639      53.971     -71.736
  C      637.858      56.323     -72.419
  C      637.882      57.157     -73.456
  O      637.700      62.579     -77.609
  O      638.400      64.251     -75.745
  H      635.770      57.529     -78.512
  H      637.826      61.682     -77.968
  H      637.930      56.649     -71.389
  H      637.987      58.224     -73.304
  H      638.606      57.256     -76.570
  H      635.798      56.678     -76.453
  H      635.429      58.710     -75.206
  H      637.395      59.966     -77.229
  H      637.512      53.003     -72.001
  H      636.141      61.717     -76.056
  H      637.660      54.202     -70.758
  H      636.374      60.904     -74.505
  P      633.292      58.794     -76.940
  C      632.589      57.465     -79.034
  O      633.224      57.408     -77.759
  O      632.227      59.783     -77.307
  O      633.220      58.291     -75.424
  H      633.854      57.584     -75.195
  H      632.602      56.494     -79.483
  H      633.112      58.155     -79.662
  H      631.576      57.789     -78.914

 6  7  8  9  10  11  12  13  14  15  16  26  30  31  32  33  35 0
 6-311+G(2d,p)
 ****
 37  38 0
 6-311+G(2d,p)
 ****
 1  2  3  4  5  17  18  19  20  21  22  23  24  25 0
 3-21G
 ****
 27  28  29  34  36  39  40  41  42  43  44  45  46 0
 3-21G
 ****


