%nproc=1
%NoSave
%Mem=1900MB
#P OB98/GEN NMR

erre ene a

0 1
  C      -22.378     -71.776     -71.203
  O      -21.270     -71.102     -71.765
  P      -20.493     -69.965     -70.951
  C      -22.347     -68.222     -71.262
  O      -21.582     -68.969     -70.326
  C      -22.938     -66.966     -70.624
  O      -23.664     -66.211     -71.629
  C      -23.900     -67.247     -69.461
  O      -23.685     -66.231     -68.476
  C      -25.267     -67.087     -70.103
  O      -26.283     -66.809     -69.149
  C      -24.982     -65.962     -71.102
  N      -25.976     -65.896     -72.164
  C      -27.302     -65.689     -71.777
  O      -27.608     -65.703     -70.583
  N      -28.245     -65.489     -72.754
  C      -27.925     -65.672     -73.999
  N      -28.871     -65.397     -74.938
  C      -26.590     -66.137     -74.423
  C      -25.662     -66.185     -73.471
  O      -19.395     -69.288     -71.702
  O      -19.919     -70.725     -69.662
  H      -18.958     -70.562     -69.597
  H      -26.213     -65.869     -68.876
  H      -26.407     -66.396     -75.456
  H      -24.643     -66.487     -73.688
  H      -24.948     -64.991     -70.591
  H      -25.537     -68.010     -70.629
  H      -23.744     -68.230     -69.008
  H      -22.110     -66.336     -70.280
  H      -29.761     -65.042     -74.611
  H      -23.160     -68.857     -71.620
  H      -28.629     -65.203     -75.908
  H      -21.724     -67.960     -72.125
  P      -23.803     -66.636     -66.926
  C      -26.070     -65.421     -66.579
  O      -25.358     -66.639     -66.535
  O      -23.280     -65.299     -66.203
  O      -22.989     -67.805     -66.478
  H      -22.931     -65.530     -65.323
  H      -27.087     -65.597     -66.220
  H      -26.123     -65.048     -67.605
  H      -25.596     -64.674     -65.936
  H      -22.752     -72.493     -71.904
  H      -23.147     -71.068     -70.972
  H      -22.074     -72.277     -70.308

 3  4  5  6  7  8  9  10  11  12  13  24  27  28  29  30  32 0
 6-311+G(2d,p)
 ****
 34  35 0
 6-311+G(2d,p)
 ****
 1  2  14  15  16  17  18  19  20  21  22  23  25  26 0
 3-21G
 ****
 31  33  36  37  38  39  40  41  42  43  44  45  46 0
 3-21G
 ****


