%nproc=1
%NoSave
%Mem=1900MB
#P OB98/GEN NMR

erre ene a

0 1
  C     -627.405    1814.154    -403.503
  O     -628.418    1814.699    -402.675
  H     -627.883    1813.632    -404.332
  H     -626.800    1813.445    -402.948
  H     -626.778    1814.962    -403.908
  P     -628.012    1815.365    -401.270
  C     -629.383    1817.508    -401.523
  O     -628.085    1816.954    -401.530
  C     -629.373    1819.028    -401.601
  O     -628.594    1819.557    -400.491
  C     -628.749    1819.573    -402.909
  O     -629.571    1820.611    -403.426
  C     -627.405    1820.160    -402.457
  O     -626.931    1821.160    -403.342
  C     -627.769    1820.613    -401.032
  N     -626.585    1820.827    -400.177
  C     -626.152    1822.171    -400.055
  O     -626.754    1823.080    -400.647
  N     -625.060    1822.435    -399.293
  C     -624.388    1821.464    -398.759
  N     -623.288    1821.784    -398.031
  C     -624.767    1820.036    -398.909
  C     -625.874    1819.803    -399.634
  O     -626.704    1814.878    -400.707
  O     -629.266    1815.090    -400.317
  H     -626.009    1821.401    -403.068
  H     -628.991    1815.175    -399.372
  H     -624.180    1819.264    -398.456
  H     -626.219    1818.797    -399.797
  H     -628.342    1821.543    -401.057
  H     -626.649    1819.350    -402.406
  H     -628.606    1818.801    -403.672
  H     -630.379    1819.414    -401.478
  H     -623.076    1822.779    -397.931
  H     -629.907    1817.183    -400.612
  H     -622.716    1821.115    -397.552
  H     -629.936    1817.117    -402.406
  P     -630.647    1820.146    -404.548
  C     -632.550    1820.189    -402.790
  O     -631.875    1819.440    -403.795
  O     -629.898    1818.930    -405.283
  O     -631.025    1821.232    -405.521
  H     -629.523    1819.234    -406.126
  H     -633.341    1819.599    -402.376
  H     -632.958    1821.079    -403.222
  H     -631.859    1820.452    -402.017

 6  7  8  9  10  11  12  13  14  15  16  26  30  31  32  33  35 0
 6-311+G(2d,p)
 ****
 37  38 0
 6-311+G(2d,p)
 ****
 1  2  3  4  5  17  18  19  20  21  22  23  24  25 0
 3-21G
 ****
 27  28  29  34  36  39  40  41  42  43  44  45  46 0
 3-21G
 ****


