%nproc=1
%NoSave
%Mem=1900MB
#P OB98/GEN NMR

erre ene a

0 1
  C      859.823     -33.248     244.945
  O      858.661     -32.754     244.313
  H      860.217     -34.078     244.354
  H      859.580     -33.618     245.946
  H      860.590     -32.471     245.014
  P      857.978     -31.424     244.886
  C      858.720     -29.898     242.945
  O      858.829     -30.183     244.335
  C      858.021     -28.551     242.744
  O      858.727     -27.520     243.474
  C      857.997     -28.082     241.295
  O      857.035     -28.786     240.536
  C      857.718     -26.602     241.482
  O      856.312     -26.366     241.677
  C      858.509     -26.278     242.769
  N      859.775     -25.605     242.476
  C      859.848     -24.258     242.791
  O      858.909     -23.631     243.304
  N      861.007     -23.623     242.451
  C      862.019     -24.168     241.714
  O      862.926     -23.498     241.218
  C      861.924     -25.610     241.460
  C      860.812     -26.255     241.836
  O      857.718     -31.413     246.357
  O      856.610     -31.314     244.053
  H      855.869     -31.622     244.609
  H      855.866     -26.745     240.892
  H      861.049     -22.626     242.642
  H      862.740     -26.093     240.941
  H      860.704     -27.308     241.630
  H      857.916     -25.635     243.434
  H      858.036     -26.018     240.613
  H      858.996     -28.201     240.854
  H      857.002     -28.627     243.149
  H      858.123     -30.689     242.470
  H      859.716     -29.889     242.505
  P      856.784     -28.406     238.996
  C      857.677     -30.688     238.229
  O      857.779     -29.282     238.093
  O      856.782     -26.943     238.695
  O      855.354     -29.059     238.665
  H      854.786     -28.370     238.253
  H      858.385     -31.161     237.582
  H      856.688     -31.001     237.965
  H      857.880     -30.964     239.243

 6  7  8  9  10  11  12  13  14  15  16  27  31  32  33  34  35 0
 6-311+G(2d,p)
 ****
 36  37 0
 6-311+G(2d,p)
 ****
 1  2  3  4  5  17  18  19  20  21  22  23  24  25 0
 3-21G
 ****
 26  28  29  30  38  39  40  41  42  43  44  45 0
 3-21G
 ****


