%nproc=1
%NoSave
%Mem=1900MB
#P OB98/GEN NMR

erre ene a

0 1
  C      -24.295     -45.964      84.817
  O      -25.062     -46.903      84.082
  P      -26.592     -47.117      84.517
  C      -26.035     -49.285      85.833
  O      -26.580     -47.974      85.873
  C      -26.189     -49.981      87.187
  O      -25.854     -49.037      88.243
  C      -27.604     -50.509      87.475
  O      -27.448     -51.714      88.233
  C      -28.190     -49.396      88.327
  O      -29.344     -49.774      89.056
  C      -26.969     -49.020      89.162
  N      -29.766     -46.187      92.368
  C      -29.862     -47.482      91.994
  N      -29.076     -48.171      91.141
  C      -28.094     -47.386      90.663
  C      -27.881     -46.046      90.939
  C      -28.771     -45.439      91.838
  N      -28.676     -44.113      92.211
  N      -26.791     -45.568      90.240
  C      -26.355     -46.603      89.551
  N      -27.097     -47.727      89.791
  O      -27.133     -48.159      83.430
  O      -27.418     -45.869      84.556
  H      -29.757     -48.985      89.459
  H      -28.049     -47.951      83.166
  H      -30.681     -48.041      92.439
  H      -25.521     -46.589      88.861
  H      -26.766     -49.759      89.947
  H      -28.481     -48.565      87.674
  H      -28.178     -50.726      86.570
  H      -25.461     -50.800      87.239
  H      -24.967     -49.228      85.598
  H      -29.471     -43.726      92.698
  H      -28.068     -43.522      91.658
  H      -26.524     -49.858      85.038
  P      -28.435     -52.946      87.942
  C      -29.948     -52.056      89.819
  O      -29.865     -52.424      88.455
  O      -28.019     -53.952      89.117
  O      -28.368     -53.526      86.572
  H      -28.017     -53.509      89.984
  H      -30.938     -51.632      90.006
  H      -29.189     -51.306      90.057
  H      -29.817     -52.939      90.451
  H      -23.302     -45.925      84.420
  H      -24.257     -46.261      85.844
  H      -24.747     -44.997      84.742

 3  4  5  6  7  8  9  10  11  12  22  25  29  30  31  32 0
 6-311+G(2d,p)
 ****
 33  36  37 0
 6-311+G(2d,p)
 ****
 1  2  13  14  15  16  17  18  19  20  21  23  24  26 0
 3-21G
 ****
 27  28  34  35  38  39  40  41  42  43  44  45  46  47  48 0
 3-21G
 ****


