%nproc=1
%NoSave
%Mem=1900MB
#P OB98/GEN NMR

erre ene a

0 1
  C      -76.455    -121.852     309.374
  O      -75.556    -122.792     308.807
  P      -74.341    -122.319     307.870
  C      -75.049    -124.172     306.217
  O      -74.745    -122.797     306.392
  C      -76.273    -124.325     305.310
  O      -77.401    -123.659     305.912
  C      -76.113    -123.703     303.928
  O      -75.308    -124.519     303.092
  C      -77.572    -123.561     303.506
  O      -78.083    -124.821     303.040
  C      -78.254    -123.182     304.839
  N      -78.504    -121.747     304.961
  C      -79.818    -121.327     304.743
  O      -80.707    -122.131     304.470
  N      -80.109    -119.991     304.871
  C      -79.168    -119.146     305.172
  N      -79.527    -117.845     305.354
  C      -77.763    -119.542     305.356
  C      -77.503    -120.844     305.242
  O      -72.990    -122.760     308.319
  O      -74.503    -120.731     307.778
  H      -77.511    -125.098     302.297
  H      -74.036    -120.239     308.497
  H      -77.012    -118.799     305.590
  H      -76.499    -121.220     305.386
  H      -79.205    -123.719     304.945
  H      -77.728    -122.820     302.713
  H      -75.654    -122.709     304.007
  H      -76.511    -125.395     305.224
  H      -80.523    -117.651     305.389
  H      -75.275    -124.612     307.197
  H      -78.938    -117.198     305.857
  H      -74.180    -124.685     305.792
  P      -73.835    -123.995     302.734
  C      -74.273    -124.113     300.177
  O      -73.953    -123.297     301.296
  O      -73.023    -125.345     302.458
  O      -73.202    -123.161     303.799
  H      -72.479    -125.578     303.236
  H      -74.549    -123.469     299.342
  H      -75.122    -124.771     300.410
  H      -73.408    -124.712     299.892
  H      -77.187    -122.367     309.961
  H      -76.943    -121.309     308.592
  H      -75.913    -121.171     309.997

 3  4  5  6  7  8  9  10  11  12  13  23  27  28  29  30  32 0
 6-311+G(2d,p)
 ****
 34  35 0
 6-311+G(2d,p)
 ****
 1  2  14  15  16  17  18  19  20  21  22  24  25  26 0
 3-21G
 ****
 31  33  36  37  38  39  40  41  42  43  44  45  46 0
 3-21G
 ****


