%nproc=1
%NoSave
%Mem=1900MB
#P OB98/GEN NMR

erre ene a

0 1
  C     -949.754    -645.255      42.465
  O     -950.684    -646.010      41.708
  P     -951.965    -645.309      41.055
  C     -954.328    -644.520      41.906
  O     -953.100    -645.161      42.174
  C     -955.413    -645.133      42.793
  O     -955.110    -644.892      44.186
  C     -956.787    -644.522      42.490
  O     -957.497    -645.315      41.569
  C     -957.437    -644.471      43.878
  O     -957.982    -645.772      44.212
  C     -956.215    -644.156      44.782
  N     -955.800    -642.742      44.909
  C     -956.768    -641.750      45.052
  O     -957.971    -641.978      45.123
  N     -956.301    -640.454      45.099
  C     -954.973    -640.098      45.058
  O     -954.574    -638.944      44.864
  C     -954.008    -641.198      45.179
  C     -954.455    -642.437      45.064
  O     -952.555    -646.440      40.080
  O     -951.699    -644.028      40.321
  H     -957.286    -646.419      44.057
  H     -952.263    -646.287      39.169
  H     -956.989    -639.725      45.068
  H     -952.955    -640.924      45.286
  H     -953.749    -643.265      45.123
  H     -956.373    -644.541      45.800
  H     -958.254    -643.777      43.889
  H     -956.671    -643.498      42.120
  H     -955.446    -646.212      42.621
  H     -954.588    -644.620      40.851
  H     -954.229    -643.439      42.107
  P     -959.044    -644.998      41.268
  C     -961.166    -644.870      42.701
  O     -959.816    -645.263      42.649
  O     -959.618    -645.675      40.060
  O     -959.059    -643.395      41.110
  H     -959.032    -643.141      40.160
  H     -961.614    -645.259      43.617
  H     -961.711    -645.239      41.837
  H     -961.197    -643.764      42.722
  H     -948.973    -645.898      42.815
  H     -950.252    -644.811      43.302
  H     -949.334    -644.486      41.850

 3  4  5  6  7  8  9  10  11  12  13  23  28  29  30  31  32 0
 6-311+G(2d,p)
 ****
 33  34 0
 6-311+G(2d,p)
 ****
 1  2  14  15  16  17  18  19  20  21  22  24  25  26  27 0
 3-21G
 ****
 35  36  37  38  39  40  41  42  43  44  45 0
 3-21G
 ****


