%nproc=1
%NoSave
%Mem=1900MB
#P OB98/GEN NMR

erre ene a

0 1
  C     -188.789     346.528     375.403
  O     -188.740     345.661     374.267
  P     -187.693     345.953     373.097
  C     -185.499     344.598     373.239
  O     -186.849     344.628     372.792
  C     -184.615     343.893     372.203
  O     -183.212     344.039     372.514
  C     -184.848     342.384     372.158
  O     -186.086     341.946     371.640
  C     -183.587     341.887     371.472
  O     -183.686     341.996     370.049
  C     -182.521     342.868     372.018
  N     -181.683     342.269     373.057
  C     -180.929     341.166     372.667
  O     -180.979     340.675     371.544
  N     -180.136     340.618     373.640
  C     -180.052     341.028     374.940
  O     -179.342     340.485     375.771
  C     -180.891     342.182     375.295
  C     -181.658     342.741     374.352
  O     -186.889     347.202     373.240
  O     -188.638     346.055     371.795
  H     -182.820     341.754     369.679
  H     -188.312     346.795     371.245
  H     -179.574     339.817     373.377
  H     -180.854     342.533     376.314
  H     -182.284     343.596     374.596
  H     -181.867     343.205     371.210
  H     -183.394     340.834     371.699
  H     -184.812     342.014     373.194
  H     -184.788     344.353     371.227
  H     -185.436     344.086     374.203
  H     -185.156     345.626     373.412
  P     -187.370     341.653     372.557
  C     -188.774     343.668     371.730
  O     -188.659     342.268     371.829
  O     -187.230     341.891     374.020
  O     -187.572     340.073     372.311
  H     -187.932     339.682     373.131
  H     -189.713     343.907     371.225
  H     -187.948     344.077     371.138
  H     -188.781     344.126     372.723
  H     -189.542     346.185     376.081
  H     -189.023     347.522     375.083
  H     -187.839     346.526     375.895

 3  4  5  6  7  8  9  10  11  12  13  23  28  29  30  31  32 0
 6-311+G(2d,p)
 ****
 33  34 0
 6-311+G(2d,p)
 ****
 1  2  14  15  16  17  18  19  20  21  22  24  25  26  27 0
 3-21G
 ****
 35  36  37  38  39  40  41  42  43  44  45 0
 3-21G
 ****


