%nproc=1
%NoSave
%Mem=1900MB
#P OB98/GEN NMR

erre ene a

0 1
  C      340.880     906.557     -87.290
  O      340.614     906.154     -88.617
  H      339.936     906.832     -86.809
  H      341.544     907.430     -87.292
  H      341.342     905.741     -86.724
  P      341.840     905.536     -89.444
  C      341.607     906.694     -91.790
  O      341.379     905.556     -90.982
  C      340.288     907.245     -92.348
  O      339.609     906.173     -93.056
  C      339.333     907.762     -91.274
  O      338.630     908.892     -91.802
  C      338.361     906.609     -91.069
  O      337.116     907.047     -90.528
  C      338.284     906.036     -92.497
  N      337.834     904.646     -92.511
  C      336.457     904.433     -92.662
  O      335.690     905.386     -92.756
  N      335.983     903.141     -92.646
  C      336.798     902.153     -92.445
  N      336.268     900.905     -92.412
  C      338.253     902.340     -92.227
  C      338.685     903.589     -92.280
  O      341.762     903.986     -89.051
  O      343.160     906.182     -89.166
  H      336.754     907.749     -91.105
  H      340.857     903.630     -89.068
  H      338.897     901.482     -92.047
  H      339.750     903.823     -92.146
  H      337.591     906.627     -93.115
  H      338.784     905.874     -90.385
  H      339.842     908.057     -90.351
  H      340.519     908.016     -93.084
  H      335.261     900.830     -92.543
  H      342.280     906.450     -92.622
  H      336.792     900.069     -92.204
  H      342.101     907.461     -91.170
  P      338.939     910.359     -91.226
  C      336.733     911.731     -91.242
  O      337.950     911.417     -91.932
  O      340.377     910.753     -91.203
  O      338.348     910.276     -89.736
  H      338.966     910.749     -89.144
  H      336.172     912.440     -91.814
  H      336.964     912.148     -90.284
  H      336.156     910.839     -91.113

 6  7  8  9  10  11  12  13  14  15  16  26  30  31  32  33  35 0
 6-311+G(2d,p)
 ****
 37  38 0
 6-311+G(2d,p)
 ****
 1  2  3  4  5  17  18  19  20  21  22  23  24  25 0
 3-21G
 ****
 27  28  29  34  36  39  40  41  42  43  44  45  46 0
 3-21G
 ****


