%nproc=1
%NoSave
%Mem=1900MB
#P OB98/GEN NMR

erre ene a

0 1
  C      -50.784    -105.694     -12.912
  O      -49.695    -105.348     -13.771
  P      -49.109    -103.863     -13.606
  C      -47.709    -104.540     -11.534
  O      -47.704    -103.969     -12.833
  C      -46.321    -105.062     -11.146
  O      -45.873    -106.095     -12.071
  C      -45.237    -103.978     -11.131
  O      -44.325    -104.314     -10.076
  C      -44.544    -104.176     -12.466
  O      -43.253    -103.574     -12.481
  C      -44.565    -105.701     -12.545
  N      -41.587    -108.703     -15.303
  C      -41.488    -108.325     -13.979
  N      -40.475    -108.866     -13.270
  N      -42.312    -107.491     -13.398
  C      -43.301    -107.061     -14.219
  C      -43.516    -107.374     -15.541
  C      -42.577    -108.272     -16.179
  O      -42.623    -108.642     -17.345
  N      -44.648    -106.760     -16.027
  C      -45.067    -106.028     -15.009
  N      -44.321    -106.217     -13.879
  O      -50.090    -103.203     -12.528
  O      -49.079    -103.085     -14.879
  H      -43.380    -102.602     -12.430
  H      -50.746    -102.635     -12.973
  H      -40.916    -109.335     -15.704
  H      -45.918    -105.366     -15.030
  H      -43.810    -106.162     -11.894
  H      -45.142    -103.734     -13.272
  H      -39.834    -109.553     -13.642
  H      -45.614    -102.960     -10.995
  H      -40.402    -108.638     -12.287
  H      -46.395    -105.523     -10.154
  H      -48.424    -105.365     -11.491
  H      -48.065    -103.792     -10.817
  P      -44.035    -103.207      -8.956
  C      -45.863    -104.074      -7.344
  O      -44.489    -103.819      -7.549
  O      -45.147    -102.092      -9.254
  O      -42.663    -102.618      -9.002
  H      -44.763    -101.205      -9.121
  H      -45.967    -104.874      -6.607
  H      -46.362    -104.380      -8.267
  H      -46.345    -103.173      -6.957
  H      -51.089    -106.700     -13.110
  H      -51.604    -105.031     -13.091
  H      -50.474    -105.610     -11.891

 3  4  5  6  7  8  9  10  11  12  23  26  30  31 0
 6-311+G(2d,p)
 ****
 33  35  36  37  38 0
 6-311+G(2d,p)
 ****
 1  2  13  14  15  16  17  18  19  20  21  22  24  25 0
 3-21G
 ****
 27  28  29  32  34  39  40  41  42  43  44  45  46  47  48  49 0
 3-21G
 ****


