%nproc=1
%NoSave
%Mem=1900MB
#P OB98/GEN NMR

erre ene a

0 1
  C      -31.630     -74.782     776.377
  O      -32.761     -74.492     777.197
  P      -32.450     -73.949     778.693
  C      -33.375     -71.551     778.211
  O      -33.489     -72.744     778.990
  C      -34.762     -71.127     777.697
  O      -35.213     -72.001     776.637
  C      -35.860     -71.170     778.757
  O      -35.826     -70.035     779.614
  C      -37.106     -71.152     777.880
  O      -37.427     -69.799     777.501
  C      -36.653     -71.969     776.654
  N      -38.751     -75.714     773.913
  C      -38.400     -74.416     773.546
  N      -38.640     -74.075     772.249
  N      -37.896     -73.536     774.357
  C      -37.688     -74.018     775.615
  C      -37.980     -75.263     776.104
  C      -38.587     -76.230     775.186
  O      -38.938     -77.372     775.463
  N      -37.635     -75.395     777.415
  C      -37.108     -74.233     777.727
  N      -37.122     -73.345     776.673
  O      -31.048     -73.189     778.513
  O      -32.369     -75.026     779.723
  H      -38.306     -69.837     777.060
  H      -30.554     -73.191     779.348
  H      -39.150     -76.335     773.237
  H      -36.662     -73.981     778.699
  H      -36.981     -71.508     775.712
  H      -37.990     -71.553     778.384
  H      -38.976     -74.716     771.544
  H      -35.827     -72.117     779.337
  H      -38.368     -73.158     771.947
  H      -34.664     -70.090     777.300
  H      -32.712     -71.716     777.362
  H      -32.921     -70.767     778.833
  P      -36.707     -70.116     780.974
  C      -34.725     -69.489     782.541
  O      -35.976     -69.136     782.001
  O      -36.357     -71.570     781.546
  O      -38.159     -69.902     780.771
  H      -37.114     -71.926     782.066
  H      -34.069     -69.922     781.771
  H      -34.862     -70.211     783.346
  H      -34.230     -68.604     782.961
  H      -31.962     -75.130     775.421
  H      -31.035     -75.538     776.845
  H      -31.045     -73.895     776.250

 3  4  5  6  7  8  9  10  11  12  23  26  30  31  33  0
 6-311+G(2d,p)
 ****
 35  36  37  38 0
 6-311+G(2d,p)
 ****
 1  2  13  14  15  16  17  18  19  20  21  22  24  25  27  28  29 0
 3-21G
 ****
 32  34  39  40  41  42  43  44  45  46  47  48  49 0
 3-21G
 ****


