%nproc=1
%NoSave
%Mem=1900MB
#P OB98/GEN NMR

erre ene a

0 1
  C     -314.377    -150.353     205.653
  O     -315.279    -149.852     204.691
  P     -315.619    -150.676     203.361
  C     -317.480    -151.908     204.647
  O     -316.322    -152.042     203.829
  C     -318.614    -152.791     204.115
  O     -319.747    -152.705     205.033
  C     -319.104    -152.356     202.717
  O     -319.130    -153.406     201.748
  C     -320.447    -151.711     203.020
  O     -321.315    -151.644     201.903
  C     -320.926    -152.535     204.219
  N     -322.014    -151.887     204.945
  C     -323.067    -152.697     205.364
  O     -323.129    -153.908     205.174
  N     -324.108    -152.055     205.974
  C     -324.257    -150.707     206.101
  O     -325.264    -150.197     206.571
  C     -323.131    -149.900     205.604
  C     -322.068    -150.513     205.079
  O     -314.479    -150.864     202.418
  O     -316.853    -149.864     202.738
  H     -321.444    -152.554     201.571
  H     -317.634    -149.805     203.314
  H     -324.880    -152.630     206.282
  H     -323.224    -148.827     205.682
  H     -321.224    -149.945     204.702
  H     -321.256    -153.529     203.918
  H     -320.255    -150.679     203.337
  H     -318.432    -151.608     202.279
  H     -318.256    -153.823     204.101
  H     -317.802    -150.864     204.632
  H     -317.234    -152.164     205.684
  P     -319.696    -153.265     200.256
  C     -317.272    -153.171     199.314
  O     -318.560    -152.588     199.354
  O     -321.045    -152.642     200.144
  O     -319.726    -154.776     199.726
  H     -320.436    -154.876     199.066
  H     -316.539    -152.385     199.115
  H     -317.233    -153.902     198.506
  H     -317.019    -153.655     200.264
  H     -314.290    -149.654     206.459
  H     -313.418    -150.497     205.201
  H     -314.739    -151.287     206.029

 3  4  5  6  7  8  9  10  11  12  13  23  28  29  30  31  32 0
 6-311+G(2d,p)
 ****
 33  34 0
 6-311+G(2d,p)
 ****
 1  2  14  15  16  17  18  19  20  21  22  24  25  26  27 0
 3-21G
 ****
 35  36  37  38  39  40  41  42  43  44  45 0
 3-21G
 ****


