%nproc=1
%NoSave
%Mem=1900MB
#P OB98/GEN NMR

erre ene a

0 1
  C      406.887    -756.716     741.267
  O      406.517    -755.796     742.279
  H      407.520    -756.193     740.541
  H      405.998    -757.088     740.758
  H      407.456    -757.549     741.691
  P      405.727    -756.339     743.564
  C      404.692    -753.975     743.760
  O      404.453    -755.383     743.762
  C      403.694    -753.276     742.845
  O      403.975    -753.635     741.465
  C      402.246    -753.661     743.088
  O      401.734    -753.042     744.240
  C      401.609    -753.230     741.773
  O      401.333    -751.814     741.789
  C      402.722    -753.556     740.750
  N      402.444    -754.793     740.023
  C      401.379    -754.761     739.142
  O      400.684    -753.760     738.926
  N      401.081    -755.956     738.511
  C      401.647    -757.152     738.805
  O      401.186    -758.225     738.409
  C      402.799    -757.122     739.696
  C      403.142    -755.963     740.275
  O      406.546    -756.563     744.785
  O      405.065    -757.705     743.042
  H      405.595    -758.453     743.379
  H      402.197    -751.378     741.936
  H      400.282    -755.942     737.886
  H      403.327    -758.052     739.900
  H      403.971    -755.916     740.973
  H      402.818    -752.727     740.029
  H      400.675    -753.746     741.588
  H      402.158    -754.756     743.166
  H      403.842    -752.183     742.944
  H      405.716    -753.797     743.414
  H      404.603    -753.603     744.794
  P      400.845    -753.892     745.285
  C      399.425    -751.815     745.872
  O      399.419    -753.173     745.418
  O      401.505    -754.211     746.587
  O      400.485    -755.239     744.481
  H      400.697    -755.998     745.053
  H      398.420    -751.450     745.918
  H      399.992    -751.214     745.192
  H      399.868    -751.766     746.845

 6  7  8  9  10  11  12  13  14  15  16  27  31  32  33  34  35 0
 6-311+G(2d,p)
 ****
 36  37 0
 6-311+G(2d,p)
 ****
 1  2  3  4  5  17  18  19  20  21  22  23  24  25 0
 3-21G
 ****
 26  28  29  30  38  39  40  41  42  43  44  45 0
 3-21G
 ****


