%nproc=1
%NoSave
%Mem=1900MB
#P OB98/GEN NMR

erre ene a

0 1
  C       69.060     295.714      26.874
  O       70.027     295.486      27.885
  P       71.231     296.529      28.039
  C       72.887     295.398      26.388
  O       72.065     296.518      26.670
  C       74.285     295.855      25.960
  O       74.182     296.613      24.714
  C       74.989     296.756      26.984
  O       76.394     296.476      26.909
  C       74.716     298.147      26.439
  O       75.613     299.130      26.939
  C       74.838     297.877      24.936
  N       74.253     298.937      24.118
  C       75.046     300.048      23.854
  O       76.198     300.189      24.264
  N       74.449     301.052      23.137
  C       73.139     301.093      22.746
  O       72.633     302.070      22.208
  C       72.351     299.892      23.056
  C       72.930     298.884      23.715
  O       72.208     295.811      29.087
  O       70.821     297.888      28.504
  H       76.483     298.963      26.535
  H       72.083     296.185      29.980
  H       75.010     301.862      22.924
  H       71.312     299.880      22.743
  H       72.369     297.996      23.975
  H       75.892     297.742      24.660
  H       73.698     298.452      26.710
  H       74.627     296.623      28.006
  H       74.892     294.967      25.750
  H       72.436     294.816      25.582
  H       72.950     294.753      27.271
  P       77.194     296.273      28.289
  C       78.167     298.699      28.342
  O       77.348     297.722      28.951
  O       78.660     295.941      27.739
  O       76.623     295.200      29.159
  H       78.924     296.519      26.999
  H       78.144     298.620      27.253
  H       79.196     298.578      28.691
  H       77.811     299.691      28.632
  H       68.327     294.935      26.900
  H       69.539     295.721      25.917
  H       68.584     296.658      27.042

 3  4  5  6  7  8  9  10  11  12  13  23  28  29  30  31  32 0
 6-311+G(2d,p)
 ****
 33  34 0
 6-311+G(2d,p)
 ****
 1  2  14  15  16  17  18  19  20  21  22  24  25  26 0
 3-21G
 ****
 27  35  36  37  38  39  40  41  42  43  44  45 0
 3-21G
 ****


