%nproc=1
%NoSave
%Mem=1900MB
#P OB98/GEN NMR

erre ene a

0 1
  C      969.680     497.596     812.814
  O      969.183     496.395     812.202
  P      968.731     496.315     810.674
  C      970.904     494.975     810.309
  O      969.986     495.915     809.758
  C      971.398     493.976     809.254
  O      970.293     493.250     808.679
  C      972.116     494.611     808.071
  O      973.437     495.001     808.419
  C      972.040     493.492     807.042
  O      973.075     492.516     807.253
  C      970.651     492.886     807.339
  N      969.638     493.311     806.375
  C      969.794     492.854     805.059
  O      970.775     492.187     804.738
  N      968.837     493.199     804.128
  C      967.862     493.987     804.465
  N      966.940     494.280     803.506
  C      967.721     494.564     805.820
  C      968.630     494.187     806.710
  O      967.999     497.529     810.190
  O      967.781     495.027     810.579
  H      972.845     491.746     806.701
  H      967.111     495.174     809.885
  H      966.909     495.241     806.046
  H      968.591     494.548     807.733
  H      970.703     491.784     807.325
  H      972.152     493.843     806.005
  H      971.547     495.480     807.702
  H      972.049     493.251     809.750
  H      967.078     493.872     802.594
  H      970.397     494.425     811.108
  H      966.147     494.880     803.657
  H      971.750     495.514     810.743
  P      974.188     496.132     807.563
  C      972.805     497.838     808.896
  O      973.287     497.454     807.621
  O      974.617     495.710     806.193
  O      975.451     496.524     808.467
  H      976.188     496.785     807.886
  H      972.584     498.901     808.879
  H      973.554     497.633     809.677
  H      971.889     497.279     809.115
  H      969.916     497.402     813.839
  H      968.933     498.360     812.758
  H      970.561     497.920     812.300

 3  4  5  6  7  8  9  10  11  12  13  23  27  28  29  30  32 0
 6-311+G(2d,p)
 ****
 34  35 0
 6-311+G(2d,p)
 ****
 1  2  14  15  16  17  18  19  20  21  22  24  25  26 0
 3-21G
 ****
 31  33  36  37  38  39  40  41  42  43  44  45  46 0
 3-21G
 ****


