%nproc=1
%NoSave
%Mem=1900MB
#P OB98/GEN NMR

erre ene a

0 1
  C      325.402     775.917     141.894
  O      326.457     774.975     142.124
  P      327.552     775.347     143.239
  C      329.473     776.475     141.889
  O      328.357     776.648     142.755
  C      330.297     777.766     141.835
  O      329.651     778.766     141.035
  C      330.485     778.416     143.194
  O      331.486     777.734     143.939
  C      330.856     779.843     142.821
  O      332.284     780.003     142.671
  C      330.135     780.046     141.466
  N      329.064     781.025     141.548
  C      329.457     782.347     141.769
  O      330.649     782.628     141.910
  N      328.488     783.315     141.852
  C      327.235     782.981     141.758
  N      326.310     783.980     141.852
  C      326.775     781.597     141.553
  C      327.732     780.670     141.456
  O      328.627     774.176     143.099
  O      326.995     775.428     144.628
  H      332.677     779.642     143.489
  H      329.021     773.975     143.968
  H      325.719     781.361     141.477
  H      327.491     779.628     141.305
  H      330.852     780.386     140.710
  H      330.542     780.552     143.592
  H      329.539     778.410     143.745
  H      331.285     777.535     141.391
  H      326.667     784.927     142.000
  H      329.133     776.206     140.883
  H      325.312     783.828     141.791
  H      330.075     775.636     142.250
  P      331.013     776.667     145.037
  C      331.390     778.436     146.857
  O      330.465     777.545     146.264
  O      332.415     776.135     145.604
  O      330.135     775.551     144.571
  H      332.260     775.399     146.225
  H      330.848     779.114     147.527
  H      331.893     779.036     146.109
  H      332.120     777.871     147.449
  H      324.750     775.544     141.132
  H      325.820     776.851     141.580
  H      324.848     776.060     142.798

 3  4  5  6  7  8  9  10  11  12  13  21  23  27  28  29  30  32 0
 6-311+G(2d,p)
 ****
 34  35 0
 6-311+G(2d,p)
 ****
 1  2  14  15  16  17  18  19  20  22  24  25  26 0
 3-21G
 ****
 31  33  36  37  38  39  40  41  42  43  44  45  46 0
 3-21G
 ****


