%nproc=1
%NoSave
%Mem=1900MB
#P OB98/GEN NMR

erre ene a

0 1
  C      -51.666     -32.046     -16.676
  O      -50.617     -32.046     -15.693
  P      -49.909     -30.657     -15.303
  C      -47.742     -30.885     -16.751
  O      -48.965     -30.202     -16.517
  C      -46.862     -30.076     -17.708
  O      -47.569     -29.806     -18.941
  C      -46.451     -28.709     -17.180
  O      -45.412     -28.802     -16.221
  C      -46.030     -28.004     -18.463
  O      -44.681     -28.350     -18.821
  C      -47.029     -28.582     -19.486
  N      -48.088     -27.640     -19.832
  C      -47.716     -26.548     -20.608
  O      -46.555     -26.328     -20.949
  N      -48.724     -25.690     -20.953
  C      -50.026     -25.777     -20.550
  O      -50.880     -24.964     -20.877
  C      -50.342     -26.906     -19.664
  C      -49.374     -27.768     -19.347
  O      -48.835     -31.128     -14.208
  O      -50.809     -29.606     -14.742
  H      -44.098     -27.713     -18.363
  H      -48.656     -30.394     -13.591
  H      -48.481     -24.908     -21.541
  H      -51.358     -26.999     -19.302
  H      -49.592     -28.608     -18.694
  H      -46.504     -28.869     -20.405
  H      -46.068     -26.915     -18.374
  H      -47.322     -28.195     -16.759
  H      -45.976     -30.678     -17.949
  H      -47.953     -31.860     -17.198
  H      -47.232     -31.039     -15.796
  P      -45.859     -28.918     -14.682
  C      -46.543     -26.427     -14.285
  O      -46.950     -27.764     -14.473
  O      -44.542     -28.386     -13.943
  O      -46.275     -30.298     -14.296
  H      -44.085     -27.698     -14.457
  H      -45.630     -26.202     -14.843
  H      -46.372     -26.247     -13.221
  H      -47.340     -25.764     -14.633
  H      -52.024     -33.045     -16.815
  H      -51.286     -31.671     -17.603
  H      -52.469     -31.422     -16.341

 3  4  5  6  7  8  9  10  11  12  13  23  28  29  30  31  32 0
 6-311+G(2d,p)
 ****
 33  34 0
 6-311+G(2d,p)
 ****
 1  2  14  15  16  17  18  19  20  21  22  24  25  26 0
 3-21G
 ****
 27  35  36  37  38  39  40  41  42  43  44  45 0
 3-21G
 ****


