%nproc=1
%NoSave
%Mem=1900MB
#P OB98/GEN NMR

erre ene a

0 1
  C       99.806     391.393       2.702
  O      100.537     391.664       1.519
  P      101.095     390.405       0.686
  C      103.240     388.951       0.831
  O      102.360     389.848       1.494
  C      103.959     388.034       1.826
  O      103.018     387.072       2.351
  C      105.140     387.265       1.229
  O      106.168     387.184       2.224
  C      104.576     385.876       0.995
  O      105.595     384.883       0.976
  C      103.580     385.760       2.164
  N      102.544     384.758       1.914
  C      102.731     383.499       2.485
  O      103.764     383.248       3.094
  N      101.767     382.539       2.295
  C      100.753     382.788       1.521
  N       99.820     381.803       1.377
  C      100.582     384.063       0.795
  C      101.500     385.003       1.054
  O      101.747     391.094      -0.603
  O      100.054     389.394       0.321
  H      106.077     384.955       0.122
  H      101.674     390.514      -1.383
  H       99.748     384.207       0.131
  H      101.445     385.981       0.587
  H      104.107     385.483       3.087
  H      104.044     385.847       0.032
  H      105.543     387.733       0.322
  H      104.297     388.655       2.668
  H       99.968     380.938       1.867
  H      103.994     389.518       0.284
  H       99.004     381.909       0.786
  H      102.672     388.356       0.103
  P      107.598     387.816       1.878
  C      109.268     387.536      -0.054
  O      108.001     387.172       0.462
  O      108.549     387.017       2.889
  O      107.776     389.293       2.028
  H      109.466     387.352       2.813
  H      109.471     386.924      -0.944
  H      110.046     387.360       0.682
  H      109.258     388.590      -0.351
  H       99.498     392.315       3.150
  H      100.424     390.852       3.387
  H       98.943     390.808       2.462

 3  4  5  6  7  8  9  10  11  12  13  21  23  27  28  29  30  32 0
 6-311+G(2d,p)
 ****
 34  35 0
 6-311+G(2d,p)
 ****
 1  2  14  15  16  17  18  19  20  22  24  25  26 0
 3-21G
 ****
 31  33  36  37  38  39  40  41  42  43  44  45  46 0
 3-21G
 ****


