%nproc=1
%NoSave
%Mem=1900MB
#P OB98/GEN NMR

erre ene a

0 1
  C      244.788    -595.981    -545.345
  O      245.277    -596.850    -546.348
  H      245.638    -595.501    -544.853
  H      244.219    -596.538    -544.598
  H      244.155    -595.211    -545.792
  P      244.194    -597.740    -547.127
  C      245.542    -599.956    -546.945
  O      244.987    -598.959    -547.799
  C      246.353    -600.945    -547.775
  O      245.558    -601.414    -548.890
  C      247.617    -600.354    -548.396
  O      248.683    -600.251    -547.470
  C      247.892    -601.360    -549.498
  O      248.630    -602.494    -549.007
  C      246.475    -601.767    -549.947
  N      246.115    -601.146    -551.221
  C      246.727    -601.687    -552.350
  O      247.529    -602.627    -552.302
  N      246.425    -601.089    -553.541
  C      245.627    -599.991    -553.700
  O      245.442    -599.467    -554.791
  C      245.026    -599.450    -552.476
  C      245.291    -600.043    -551.308
  O      243.790    -596.817    -548.369
  O      243.007    -598.137    -546.318
  H      242.901    -596.442    -548.230
  H      248.095    -602.867    -548.283
  H      246.858    -601.468    -554.368
  H      244.386    -598.574    -552.565
  H      244.868    -599.654    -550.382
  H      246.417    -602.856    -550.067
  H      248.482    -600.911    -550.295
  H      247.390    -599.380    -548.850
  H      246.605    -601.809    -547.146
  H      244.736    -600.495    -546.433
  H      246.170    -599.466    -546.189
  P      249.268    -598.785    -547.164
  C      251.659    -599.662    -547.830
  O      250.835    -598.996    -546.888
  O      248.636    -598.516    -545.724
  O      248.922    -597.782    -548.210
  H      248.457    -599.342    -545.235
  H      252.663    -599.700    -547.462
  H      251.639    -599.132    -548.759
  H      251.297    -600.658    -547.980

 6  7  8  9  10  11  12  13  14  15  16  27  31  32  33  34  35 0
 6-311+G(2d,p)
 ****
 36  37 0
 6-311+G(2d,p)
 ****
 1  2  3  4  5  17  18  19  20  21  22  23  24  25 0
 3-21G
 ****
 26  28  29  30  38  39  40  41  42  43  44  45 0
 3-21G
 ****


