%nproc=1
%NoSave
%Mem=1900MB
#P OB98/GEN NMR

erre ene a

0 1
  C     -481.420    -622.973     144.275
  O     -482.803    -623.028     143.975
  H     -481.097    -621.933     144.337
  H     -481.250    -623.455     145.240
  H     -480.838    -623.497     143.512
  P     -483.251    -622.656     142.481
  C     -484.514    -624.808     141.773
  O     -483.325    -624.040     141.674
  C     -484.270    -626.079     142.587
  O     -483.959    -625.699     143.970
  C     -485.468    -627.049     142.629
  O     -484.973    -628.387     142.571
  C     -486.072    -626.809     144.004
  O     -486.791    -627.933     144.499
  C     -484.813    -626.479     144.823
  N     -488.062    -626.370     148.723
  C     -487.760    -627.335     147.836
  N     -486.841    -627.290     146.849
  C     -486.144    -626.145     146.882
  C     -486.340    -625.071     147.734
  C     -487.368    -625.211     148.694
  N     -487.731    -624.199     149.571
  N     -485.465    -624.043     147.421
  C     -484.782    -624.483     146.387
  N     -485.159    -625.747     146.021
  O     -481.935    -621.950     141.897
  O     -484.453    -621.777     142.367
  H     -487.205    -627.688     145.350
  H     -481.953    -620.997     142.102
  H     -488.345    -628.254     147.904
  H     -484.039    -623.919     145.842
  H     -484.259    -627.378     145.122
  H     -486.749    -625.952     143.966
  H     -486.203    -626.889     141.822
  H     -483.395    -626.581     142.184
  H     -484.852    -625.088     140.768
  H     -488.555    -624.357     150.129
  H     -487.288    -623.298     149.468
  H     -485.304    -624.198     142.247
  P     -484.664    -628.992     141.115
  C     -482.341    -630.079     141.548
  O     -483.073    -629.052     140.909
  O     -485.116    -627.811     140.118
  O     -485.383    -630.267     140.814
  H     -485.452    -628.186     139.284
  H     -481.303    -629.978     141.310
  H     -482.693    -631.031     141.210
  H     -482.473    -630.005     142.607

 6  7  8  9  10  11  12  13  14  15  25  28  32  33  34  35 0
 6-311+G(2d,p)
 ****
 36  39  40 0
 6-311+G(2d,p)
 ****
 1  2  3  4  5  16  17  18  19  20  21  22  23  24 0
 3-21G
 ****
 26  27  29  30  31  37  38  41  42  43  44  45  46  47 0
 3-21G
 ****
 48 0
 3-21G
 ****


