%nproc=1
%NoSave
%Mem=1900MB
#P OB98/GEN NMR

erre ene a

0 1
  C     -266.070     465.166     739.890
  O     -266.863     463.984     739.821
  P     -266.221     462.624     740.398
  C     -264.922     460.574     739.373
  O     -265.562     461.833     739.175
  C     -264.553     459.922     738.037
  O     -265.770     459.489     737.388
  C     -263.861     460.828     737.034
  O     -263.204     460.020     736.049
  C     -265.036     461.548     736.393
  O     -264.674     462.138     735.143
  C     -266.094     460.423     736.325
  N     -267.490     460.906     736.480
  C     -268.215     461.220     735.332
  O     -267.788     461.125     734.178
  N     -269.486     461.703     735.525
  C     -270.105     461.870     736.756
  O     -271.210     462.376     736.882
  C     -269.343     461.387     737.916
  C     -268.092     460.956     737.731
  O     -267.489     461.742     740.803
  O     -265.296     462.849     741.557
  H     -263.876     462.709     735.321
  H     -267.604     461.730     741.761
  H     -270.001     461.994     734.720
  H     -269.809     461.427     738.892
  H     -267.508     460.616     738.588
  H     -266.049     459.888     735.355
  H     -265.383     462.346     737.051
  H     -263.142     461.541     737.470
  H     -263.945     459.027     738.234
  H     -265.585     459.914     739.954
  H     -264.012     460.722     739.976
  P     -261.708     460.414     735.627
  C     -260.648     462.212     734.111
  O     -261.807     461.818     734.840
  O     -260.923     459.339     734.943
  O     -261.028     460.835     737.032
  H     -260.061     460.804     736.944
  H     -260.978     462.817     733.267
  H     -260.092     461.337     733.727
  H     -259.993     462.806     734.757
  H     -266.616     465.987     739.475
  H     -265.166     465.022     739.335
  H     -265.832     465.377     740.912

 3  4  5  6  7  8  9  10  11  12  13  23  28  29  30  31  32 0
 6-311+G(2d,p)
 ****
 33  34 0
 6-311+G(2d,p)
 ****
 1  2  14  15  16  17  18  19  20  21  22  24  25  26  27 0
 3-21G
 ****
 35  36  37  38  39  40  41  42  43  44  45 0
 3-21G
 ****


