%nproc=1
%NoSave
%Mem=1900MB
#P OB98/GEN NMR

erre ene a

0 1
  C      380.163       2.356      81.131
  O      380.235       3.096      79.929
  H      381.114       1.840      81.285
  H      379.367       1.609      81.056
  H      379.976       3.015      81.984
  P      379.079       4.182      79.677
  C      376.493       4.091      79.465
  O      377.709       3.359      79.510
  C      375.300       3.146      79.561
  O      375.262       2.515      80.859
  C      373.943       3.820      79.373
  O      373.621       3.969      77.996
  C      373.028       2.804      80.042
  O      372.823       1.680      79.156
  C      373.866       2.371      81.253
  N      371.450       2.531      85.712
  C      371.390       1.587      84.703
  N      370.562       0.538      84.914
  N      372.076       1.660      83.593
  C      372.843       2.775      83.511
  C      372.981       3.785      84.439
  C      372.229       3.683      85.671
  O      372.257       4.488      86.599
  N      373.849       4.752      84.005
  C      374.219       4.341      82.807
  N      373.635       3.146      82.461
  O      379.397       4.696      78.192
  O      379.048       5.314      80.649
  H      372.511       0.939      79.706
  H      379.838       5.566      78.247
  H      370.895       2.432      86.543
  H      374.910       4.862      82.157
  H      373.706       1.320      81.512
  H      372.043       3.213      80.269
  H      369.989       0.431      85.736
  H      373.888       4.777      79.909
  H      370.507      -0.170      84.188
  H      375.443       2.349      78.817
  H      376.444       4.643      78.521
  H      376.475       4.804      80.298
  P      372.761       5.249      77.553
  C      370.217       5.574      77.159
  O      371.229       4.936      77.927
  O      372.784       5.149      75.954
  O      373.284       6.563      78.023
  H      373.317       5.881      75.581
  H      369.255       5.274      77.518
  H      370.318       5.292      76.132
  H      370.317       6.636      77.249

 6  7  8  9  10  11  12  13  14  15  26  29  33  34 0
 6-311+G(2d,p)
 ****
 36  38  39  40  41 0
 6-311+G(2d,p)
 ****
 1  2  3  4  5  16  17  18  19  20  21  22  23  24  25 0
 3-21G
 ****
 27  28  30  31  32  35  37  42  43  44  45  46  47 0
 3-21G
 ****
 48  49 0
 3-21G
 ****


