%nproc=1
%NoSave
%Mem=1900MB
#P OB98/GEN NMR

erre ene a

0 1
  C      207.094     -43.711    -263.063
  O      207.357     -42.708    -264.047
  P      207.587     -41.193    -263.582
  C      208.564     -39.159    -264.848
  O      207.643     -40.244    -264.874
  C      208.459     -38.350    -266.145
  O      209.034     -39.066    -267.267
  C      207.020     -38.075    -266.560
  O      206.286     -37.180    -265.756
  C      207.162     -37.734    -268.034
  O      207.528     -36.366    -268.219
  C      208.323     -38.668    -268.460
  N      207.855     -39.834    -269.214
  C      207.340     -39.570    -270.480
  O      207.228     -38.437    -270.943
  N      206.920     -40.664    -271.188
  C      206.934     -41.953    -270.753
  O      206.520     -42.893    -271.422
  C      207.464     -42.169    -269.396
  C      207.897     -41.112    -268.703
  O      208.679     -40.978    -262.588
  O      206.164     -40.803    -262.938
  H      207.798     -36.256    -269.148
  H      206.336     -40.278    -262.132
  H      206.552     -40.492    -272.111
  H      207.484     -43.176    -269.016
  H      208.292     -41.248    -267.699
  H      209.039     -38.121    -269.088
  H      206.227     -37.891    -268.581
  H      206.472     -39.028    -266.511
  H      209.021     -37.422    -266.027
  H      209.585     -39.538    -264.720
  H      208.357     -38.536    -263.972
  P      204.901     -37.570    -265.046
  C      204.001     -37.146    -262.649
  O      204.710     -36.635    -263.756
  O      204.595     -39.020    -264.883
  O      203.831     -36.932    -266.064
  H      203.033     -37.493    -266.067
  H      203.959     -36.367    -261.877
  H      204.508     -38.018    -262.235
  H      202.981     -37.405    -262.936
  H      206.967     -44.658    -263.544
  H      206.202     -43.460    -262.528
  H      207.916     -43.765    -262.381

 3  4  5  6  7  8  9  10  11  12  13  23  28  29  30  31  32 0
 6-311+G(2d,p)
 ****
 33  34 0
 6-311+G(2d,p)
 ****
 1  2  14  15  16  17  18  19  20  21  22  24  25  26  27 0
 3-21G
 ****
 35  36  37  38  39  40  41  42  43  44  45 0
 3-21G
 ****


