%nproc=1
%NoSave
%Mem=1900MB
#P OB98/GEN NMR

erre ene a

0 1
  C       65.602    -915.951    -410.070
  O       65.452    -914.860    -409.189
  H       66.507    -915.806    -410.662
  H       64.745    -915.994    -410.748
  H       65.689    -916.894    -409.522
  P       64.428    -915.041    -407.963
  C       62.939    -913.377    -409.290
  O       63.421    -913.789    -408.017
  C       61.523    -912.814    -409.160
  O       60.599    -913.921    -408.897
  C       61.356    -911.782    -408.029
  O       60.429    -910.773    -408.461
  C       60.687    -912.595    -406.936
  O       59.966    -911.781    -406.016
  C       59.810    -913.528    -407.765
  N       56.168    -915.085    -404.684
  C       56.253    -913.957    -405.465
  N       55.246    -913.068    -405.380
  N       57.252    -913.715    -406.277
  C       58.191    -914.701    -406.276
  C       58.222    -915.860    -405.551
  C       57.119    -916.112    -404.654
  O       56.996    -917.079    -403.918
  N       59.373    -916.565    -405.798
  C       60.046    -915.813    -406.663
  N       59.362    -914.671    -406.978
  O       65.348    -914.727    -406.692
  O       63.781    -916.376    -407.867
  H       59.325    -911.233    -406.521
  H       65.701    -915.561    -406.328
  H       55.382    -915.220    -404.062
  H       61.028    -916.044    -407.056
  H       58.897    -913.022    -408.137
  H       61.439    -913.162    -406.370
  H       54.424    -913.198    -404.805
  H       62.288    -911.313    -407.704
  H       55.277    -912.252    -405.971
  H       61.230    -912.387    -410.131
  H       62.924    -914.232    -409.961
  H       63.616    -912.622    -409.698
  P       60.976    -909.273    -408.625
  C       60.379    -908.399    -406.239
  O       60.134    -908.326    -407.647
  O       60.441    -908.855    -410.074
  O       62.459    -909.165    -408.525
  H       61.101    -908.263    -410.508
  H       59.740    -907.708    -405.730
  H       61.401    -908.152    -406.042
  H       60.179    -909.392    -405.893

 6  7  8  9  10  11  12  13  14  15  26  29  33  34 0
 6-311+G(2d,p)
 ****
 36  38  39  40  41 0
 6-311+G(2d,p)
 ****
 1  2  3  4  5  16  17  18  19  20  21  22  23  24  25 0
 3-21G
 ****
 27  28  30  31  32  35  37  42  43  44  45  46  47 0
 3-21G
 ****
 48  49 0
 3-21G
 ****


