%nproc=1
%NoSave
%Mem=1900MB
#P OB98/GEN NMR

erre ene a

0 1
  C       -4.903     170.171      55.965
  O       -4.915     168.763      55.743
  P       -6.317     168.046      55.451
  C       -5.839     167.818      52.858
  O       -6.699     168.205      53.909
  C       -6.684     167.411      51.637
  O       -7.291     166.118      51.855
  C       -7.812     168.389      51.333
  O       -7.384     169.456      50.512
  C       -8.836     167.489      50.669
  O       -8.466     167.228      49.301
  C       -8.704     166.202      51.518
  N       -9.496     166.105      52.764
  C      -10.837     165.735      52.708
  O      -11.441     165.476      51.667
  N      -11.492     165.656      53.910
  C      -10.923     165.733      55.146
  O      -11.544     165.593      56.189
  C       -9.475     165.977      55.153
  C       -8.843     166.159      53.992
  O       -7.380     168.971      56.204
  O       -6.392     166.622      55.907
  H       -9.006     166.480      48.996
  H       -7.810     168.480      56.930
  H      -12.481     165.457      53.882
  H       -8.970     165.998      56.112
  H       -7.772     166.343      53.985
  H       -8.952     165.317      50.919
  H       -9.815     167.964      50.632
  H       -8.251     168.763      52.264
  H       -6.020     167.328      50.768
  H       -5.203     166.983      53.162
  H       -5.176     168.647      52.599
  P       -7.029     170.878      51.163
  C       -4.608     170.124      50.774
  O       -5.509     170.755      51.666
  O       -8.001     171.396      52.173
  O       -6.898     171.852      49.898
  H       -7.738     172.336      49.743
  H       -3.589     170.246      51.157
  H       -4.669     170.583      49.782
  H       -4.832     169.059      50.708
  H       -3.899     170.495      56.144
  H       -5.510     170.403      56.815
  H       -5.291     170.671      55.102

 3  4  5  6  7  8  9  10  11  12  13  23  28  29  30  31  32 0
 6-311+G(2d,p)
 ****
 33  34 0
 6-311+G(2d,p)
 ****
 1  2  14  15  16  17  18  19  20  21  22  24  25  26  27 0
 3-21G
 ****
 35  36  37  38  39  40  41  42  43  44  45 0
 3-21G
 ****


