%nproc=1
%NoSave
%Mem=1900MB
#P OB98/GEN NMR

erre ene a

0 1
  C      -65.312     159.240      86.176
  O      -64.877     158.183      85.345
  H      -66.249     159.636      85.774
  H      -64.572     160.043      86.194
  H      -65.495     158.877      87.192
  P      -63.482     157.469      85.677
  C      -62.639     157.888      83.273
  O      -62.900     156.919      84.286
  C      -62.162     157.196      81.991
  O      -60.866     156.606      82.263
  C      -63.114     156.079      81.538
  O      -63.527     156.211      80.180
  C      -62.373     154.806      81.930
  O      -62.701     153.669      81.158
  C      -60.899     155.226      81.855
  N      -60.011     154.421      82.686
  C      -59.363     153.349      82.079
  O      -59.460     153.045      80.890
  N      -58.552     152.606      82.897
  C      -58.339     152.818      84.226
  O      -57.594     152.120      84.906
  C      -59.067     153.950      84.818
  C      -59.859     154.687      84.034
  O      -63.518     156.462      86.779
  O      -62.497     158.684      86.023
  H      -62.528     153.886      80.219
  H      -62.383     158.746      86.990
  H      -58.068     151.835      82.465
  H      -58.930     154.143      85.872
  H      -60.411     155.530      84.437
  H      -60.538     155.167      80.828
  H      -62.624     154.568      82.972
  H      -64.059     156.122      82.095
  H      -62.025     157.952      81.211
  H      -61.866     158.567      83.648
  H      -63.549     158.463      83.069
  P      -64.809     157.027      79.696
  C      -66.191     154.894      79.051
  O      -65.610     156.125      78.646
  O      -64.564     158.449      79.318
  O      -65.762     157.026      80.999
  H      -66.257     157.873      80.983
  H      -66.680     154.439      78.216
  H      -66.905     155.075      79.827
  H      -65.426     154.241      79.415

 6  7  8  9  10  11  12  13  14  15  16  26  31  32  33  34  35 0
 6-311+G(2d,p)
 ****
 36  37 0
 6-311+G(2d,p)
 ****
 1  2  3  4  5  17  18  19  20  21  22  23  24  25 0
 3-21G
 ****
 27  28  29  30  38  39  40  41  42  43  44  45 0
 3-21G
 ****


