%nproc=1
%NoSave
%Mem=1900MB
#P OB98/GEN NMR

erre ene a

0 1
  C      226.568    -140.739    -147.675
  O      226.236    -141.122    -146.327
  P      227.421    -141.500    -145.308
  C      226.176    -143.632    -144.434
  O      226.815    -142.400    -144.126
  C      225.078    -143.925    -143.409
  O      223.919    -143.094    -143.658
  C      224.554    -145.357    -143.440
  O      225.447    -146.259    -142.814
  C      223.226    -145.208    -142.705
  O      223.423    -145.238    -141.277
  C      222.761    -143.809    -143.161
  N      221.700    -143.869    -144.161
  C      220.400    -143.977    -143.679
  O      220.132    -144.078    -142.484
  N      219.411    -143.998    -144.625
  C      219.593    -143.993    -145.982
  O      218.663    -144.035    -146.780
  C      220.994    -143.959    -146.431
  C      221.967    -143.906    -145.519
  O      227.679    -140.102    -144.562
  O      228.681    -142.002    -145.935
  H      223.806    -146.110    -141.067
  H      228.606    -140.056    -144.261
  H      218.460    -144.044    -144.296
  H      221.182    -143.978    -147.498
  H      223.004    -143.882    -145.837
  H      222.400    -143.232    -142.302
  H      222.523    -146.011    -142.947
  H      224.359    -145.657    -144.476
  H      225.463    -143.678    -142.412
  H      226.915    -144.439    -144.406
  H      225.757    -143.572    -145.445
  P      225.849    -147.572    -143.656
  C      225.409    -149.310    -141.749
  O      226.345    -148.634    -142.564
  O      227.186    -147.070    -144.381
  O      224.767    -148.028    -144.576
  H      227.689    -146.445    -143.834
  H      224.470    -149.492    -142.281
  H      225.208    -148.714    -140.855
  H      225.834    -150.274    -141.445
  H      225.670    -140.522    -148.215
  H      227.089    -141.541    -148.156
  H      227.192    -139.870    -147.655

 3  4  5  6  7  8  9  10  11  12  13  23  28  29  30  31  32 0
 6-311+G(2d,p)
 ****
 33  34 0
 6-311+G(2d,p)
 ****
 1  2  14  15  16  17  18  19  20  21  22  24  25  26 0
 3-21G
 ****
 27  35  36  37  38  39  40  41  42  43  44  45 0
 3-21G
 ****


