%nproc=1
%NoSave
%Mem=1900MB
#P OB98/GEN NMR

erre ene a

0 1
  C       35.484      48.810     435.507
  O       36.843      49.196     435.468
  H       35.199      48.437     434.519
  H       34.849      49.664     435.755
  H       35.335      48.008     436.240
  P       37.500      49.846     436.781
  C       37.882      52.149     435.678
  O       38.487      51.010     436.276
  C       38.964      53.136     435.204
  O       39.695      52.495     434.122
  C       38.369      54.451     434.673
  O       38.941      55.610     435.289
  C       38.506      54.318     433.161
  O       38.585      55.544     432.464
  C       39.730      53.404     433.005
  N       39.766      52.672     431.736
  C       39.663      53.409     430.564
  O       39.568      54.634     430.509
  N       39.682      52.675     429.406
  C       39.787      51.321     429.305
  O       39.805      50.715     428.241
  C       39.867      50.594     430.587
  C       39.858      51.286     431.727
  O       38.107      48.883     437.744
  O       36.297      50.664     437.444
  H       39.218      56.115     432.941
  H       35.939      50.165     438.208
  H       39.623      53.203     428.548
  H       39.944      49.512     430.546
  H       39.910      50.782     432.685
  H       40.653      53.993     433.071
  H       37.623      53.786     432.780
  H       37.308      54.531     434.927
  H       39.669      53.309     436.022
  H       37.243      52.628     436.428
  H       37.267      51.838     434.828
  P       38.173      56.569     436.304
  C       38.087      58.693     434.765
  O       38.558      58.084     435.954
  O       38.224      56.170     437.742
  O       36.635      56.461     435.824
  H       36.078      56.549     436.628
  H       38.449      59.698     434.712
  H       37.017      58.699     434.767
  H       38.439      58.142     433.918

 6  7  8  9  10  11  12  13  14  15  16  26  31  32  33  34  35 0
 6-311+G(2d,p)
 ****
 36  37 0
 6-311+G(2d,p)
 ****
 1  2  3  4  5  17  18  19  20  21  22  23  24  25 0
 3-21G
 ****
 27  28  29  30  38  39  40  41  42  43  44  45 0
 3-21G
 ****


