%nproc=1
%NoSave
%Mem=1900MB
#P OB98/GEN NMR

erre ene a

0 1
  C      234.411    -272.384      24.614
  O      233.107    -271.980      24.984
  H      235.084    -271.529      24.711
  H      234.411    -272.717      23.573
  H      234.769    -273.189      25.264
  P      232.033    -273.147      25.234
  C      232.700    -273.837      27.644
  O      232.709    -274.174      26.266
  C      232.559    -275.094      28.496
  O      232.731    -274.778      29.895
  C      231.204    -275.786      28.377
  O      231.151    -276.639      27.239
  C      231.185    -276.594      29.663
  O      232.024    -277.762      29.517
  C      231.821    -275.616      30.662
  N      228.882    -275.139      34.769
  C      229.674    -276.199      34.364
  N      229.675    -277.288      35.160
  N      230.394    -276.194      33.272
  C      230.278    -275.047      32.560
  C      229.523    -273.932      32.856
  C      228.746    -273.947      34.073
  O      228.038    -273.029      34.483
  N      229.656    -272.965      31.895
  C      230.471    -273.503      31.010
  N      230.875    -274.764      31.363
  O      232.045    -273.942      23.842
  O      230.659    -272.682      25.582
  H      232.150    -278.137      30.409
  H      231.254    -273.686      23.328
  H      228.341    -275.199      35.614
  H      230.806    -273.016      30.102
  H      232.413    -276.130      31.427
  H      230.188    -276.952      29.921
  H      229.128    -277.367      36.004
  H      230.378    -275.065      28.383
  H      230.250    -278.074      34.885
  H      233.369    -275.782      28.217
  H      231.857    -273.167      27.844
  H      233.636    -273.323      27.891
  P      229.773    -277.394      26.921
  C      229.104    -275.523      25.256
  O      228.739    -276.283      26.399
  O      229.228    -277.756      28.384
  O      229.895    -278.612      26.071
  H      229.260    -278.723      28.523
  H      228.324    -274.827      25.026
  H      229.253    -276.179      24.424
  H      230.010    -274.990      25.457

 6  7  8  9  10  11  12  13  14  15  26  29  33  34 0
 6-311+G(2d,p)
 ****
 36  38  39  40  41 0
 6-311+G(2d,p)
 ****
 1  2  3  4  5  16  17  18  19  20  21  22  23  24  25 0
 3-21G
 ****
 27  28  30  31  32  35  37  42  43  44  45  46  47 0
 3-21G
 ****
 48  49 0
 3-21G
 ****


