%nproc=1
%NoSave
%Mem=1900MB
#P OB98/GEN NMR

erre ene a

0 1
  C     -180.456    -280.288    -767.237
  O     -180.043    -281.030    -766.102
  P     -180.741    -280.686    -764.698
  C     -182.724    -282.360    -764.547
  O     -181.384    -282.054    -764.179
  C     -182.970    -283.871    -764.472
  O     -182.239    -284.544    -765.521
  C     -182.507    -284.504    -763.172
  O     -183.441    -284.251    -762.140
  C     -182.419    -285.975    -763.576
  O     -183.692    -286.629    -763.429
  C     -182.003    -285.892    -765.061
  N     -180.626    -286.305    -765.290
  C     -180.387    -287.681    -765.276
  O     -181.317    -288.472    -765.072
  N     -179.104    -288.132    -765.472
  C     -178.145    -287.280    -765.638
  N     -176.889    -287.773    -765.822
  C     -178.349    -285.811    -765.634
  C     -179.601    -285.397    -765.444
  O     -182.019    -279.821    -765.129
  O     -179.873    -279.963    -763.727
  H     -183.556    -287.549    -763.740
  H     -182.295    -279.215    -764.416
  H     -177.511    -285.142    -765.778
  H     -179.839    -284.339    -765.423
  H     -182.653    -286.537    -765.675
  H     -181.710    -286.523    -762.961
  H     -181.517    -284.142    -762.892
  H     -184.043    -284.055    -764.635
  H     -176.781    -288.782    -765.815
  H     -182.910    -282.033    -765.578
  H     -176.074    -287.195    -765.990
  H     -183.412    -281.830    -763.883
  P     -182.984    -284.583    -760.639
  C     -181.303    -282.679    -760.287
  O     -182.602    -283.162    -759.998
  O     -181.548    -285.252    -760.855
  O     -183.900    -285.448    -759.828
  H     -181.206    -285.593    -760.009
  H     -181.222    -281.643    -759.934
  H     -181.112    -282.688    -761.363
  H     -180.558    -283.287    -759.765
  H     -179.913    -280.620    -768.097
  H     -180.264    -279.248    -767.073
  H     -181.503    -280.436    -767.398

 3  4  5  6  7  8  9  10  11  12  13  21  23  27  28  29  30  32 0
 6-311+G(2d,p)
 ****
 34  35 0
 6-311+G(2d,p)
 ****
 1  2  14  15  16  17  18  19  20  22  24  25  26 0
 3-21G
 ****
 31  33  36  37  38  39  40  41  42  43  44  45  46 0
 3-21G
 ****


