%nproc=1
%NoSave
%Mem=1900MB
#P OB98/GEN NMR

erre ene a

0 1
  C       97.034    -361.323    -250.434
  O       98.438    -361.191    -250.522
  H       96.673    -360.711    -249.604
  H       96.767    -362.365    -250.246
  H       96.560    -360.980    -251.357
  P       99.164    -361.919    -251.752
  C      100.189    -363.916    -250.431
  O      100.422    -362.706    -251.131
  C      101.517    -364.489    -249.932
  O      102.312    -364.883    -251.083
  C      102.345    -363.485    -249.123
  O      103.021    -364.180    -248.070
  C      103.357    -362.973    -250.133
  O      104.540    -362.450    -249.545
  C      103.599    -364.236    -250.968
  N      104.149    -363.940    -252.288
  C      105.520    -364.098    -252.461
  O      106.288    -364.537    -251.607
  N      106.009    -363.719    -253.686
  C      105.286    -363.195    -254.715
  O      105.785    -362.855    -255.783
  C      103.845    -363.043    -254.472
  C      103.350    -363.416    -253.288
  O       99.847    -360.710    -252.546
  O       98.284    -362.753    -252.621
  H       99.239    -360.362    -253.226
  H      104.274    -361.765    -248.894
  H      107.002    -363.829    -253.827
  H      103.239    -362.624    -255.263
  H      102.294    -363.308    -253.070
  H      104.265    -364.925    -250.436
  H      102.907    -362.185    -250.747
  H      101.743    -362.676    -248.706
  H      101.317    -365.397    -249.351
  H       99.717    -364.636    -251.106
  H       99.518    -363.725    -249.586
  P      102.118    -364.782    -246.886
  C      103.150    -363.260    -245.030
  O      102.963    -364.569    -245.537
  O      102.223    -366.350    -247.177
  O      100.730    -364.229    -246.872
  H      103.096    -366.630    -247.500
  H      103.732    -363.305    -244.133
  H      102.198    -362.821    -244.816
  H      103.662    -362.665    -245.758

 6  7  8  9  10  11  12  13  14  15  16  27  31  32  33  34  35 0
 6-311+G(2d,p)
 ****
 36  37 0
 6-311+G(2d,p)
 ****
 1  2  3  4  5  17  18  19  20  21  22  23  24  25 0
 3-21G
 ****
 26  28  29  30  38  39  40  41  42  43  44  45 0
 3-21G
 ****


