%nproc=1
%NoSave
%Mem=1900MB
#P OB98/GEN NMR

erre ene a

0 1
  C     -213.762     109.425    -104.359
  O     -212.757     108.545    -104.833
  H     -213.649     109.527    -103.277
  H     -214.748     109.011    -104.573
  H     -213.657     110.405    -104.823
  P     -212.762     108.242    -106.412
  C     -214.101     106.632    -107.948
  O     -213.756     106.988    -106.620
  C     -214.224     105.119    -108.075
  O     -215.418     104.656    -107.428
  C     -214.282     104.610    -109.516
  O     -212.975     104.501    -110.072
  C     -214.944     103.258    -109.328
  O     -213.997     102.253    -108.899
  C     -215.975     103.558    -108.219
  N     -220.888     102.405    -108.120
  C     -219.830     101.837    -107.438
  N     -220.107     100.775    -106.655
  N     -218.601     102.268    -107.534
  C     -218.460     103.322    -108.372
  C     -219.446     103.975    -109.086
  C     -220.800     103.507    -108.965
  O     -221.796     104.009    -109.475
  N     -218.910     105.011    -109.820
  C     -217.611     104.953    -109.581
  N     -217.289     103.942    -108.722
  O     -211.312     107.599    -106.670
  O     -213.011     109.415    -107.289
  H     -213.643     101.808    -109.680
  H     -211.025     107.824    -107.570
  H     -221.814     102.032    -107.987
  H     -216.869     105.618    -110.003
  H     -216.121     102.712    -107.551
  H     -215.388     102.897    -110.261
  H     -220.934     100.208    -106.809
  H     -214.914     105.265    -110.136
  H     -219.329     100.333    -106.179
  H     -213.365     104.683    -107.558
  H     -213.325     107.002    -108.629
  H     -215.051     107.119    -108.214
  P     -212.861     104.169    -111.652
  C     -214.065     102.478    -113.205
  O     -213.684     102.824    -111.878
  O     -211.334     103.701    -111.808
  O     -213.204     105.308    -112.555
  H     -211.083     103.738    -112.752
  H     -214.607     101.556    -113.191
  H     -213.190     102.368    -113.810
  H     -214.685     103.250    -113.611

 6  7  8  9  10  11  12  13  14  15  26  29  33  34 0
 6-311+G(2d,p)
 ****
 36  38  39  40  41 0
 6-311+G(2d,p)
 ****
 1  2  3  4  5  16  17  18  19  20  21  22  23  24  25 0
 3-21G
 ****
 27  28  30  31  32  35  37  42  43  44  45  46  47 0
 3-21G
 ****
 48  49 0
 3-21G
 ****


