%nproc=1
%NoSave
%Mem=1900MB
#P OB98/GEN NMR

erre ene a

0 1
  C     -141.517    -250.486      14.014
  O     -140.901    -250.033      12.827
  P     -139.771    -248.906      12.799
  C     -141.105    -246.771      12.157
  O     -140.204    -247.786      11.729
  C     -140.986    -245.479      11.335
  O     -139.649    -244.951      11.461
  C     -141.191    -245.780       9.847
  O     -142.497    -245.868       9.312
  C     -140.260    -244.821       9.116
  O     -140.937    -243.658       8.636
  C     -139.233    -244.439      10.184
  N     -134.849    -243.512       7.819
  C     -135.884    -242.643       8.103
  N     -135.816    -241.429       7.514
  N     -136.896    -242.950       8.871
  C     -136.873    -244.231       9.308
  C     -135.896    -245.178       9.104
  C     -134.761    -244.812       8.289
  O     -133.866    -245.579       7.946
  N     -136.243    -246.393       9.638
  C     -137.449    -246.194      10.129
  N     -137.889    -244.911       9.917
  O     -138.352    -249.375      12.810
  O     -140.040    -248.153      14.202
  H     -140.418    -243.294       7.898
  H     -139.175    -247.859      14.546
  H     -134.132    -243.243       7.155
  H     -138.056    -246.950      10.613
  H     -139.174    -243.349      10.292
  H     -139.817    -245.306       8.238
  H     -135.130    -241.211       6.806
  H     -140.766    -246.776       9.665
  H     -136.634    -240.832       7.561
  H     -141.651    -244.703      11.722
  H     -140.901    -246.576      13.214
  H     -142.131    -247.142      12.090
  P     -143.220    -247.191       8.780
  C     -144.052    -246.423       6.487
  O     -144.419    -246.757       7.813
  O     -143.987    -247.764      10.065
  O     -142.302    -248.227       8.219
  H     -144.159    -248.717       9.947
  H     -144.867    -245.866       6.021
  H     -143.875    -247.338       5.914
  H     -143.147    -245.809       6.473
  H     -142.238    -251.240      13.776
  H     -142.005    -249.666      14.498
  H     -140.775    -250.895      14.667

 3  4  5  6  7  8  9  10  11  12  23  26  30  31 0
 6-311+G(2d,p)
 ****
 33  35  36  37  38 0
 6-311+G(2d,p)
 ****
 1  2  13  14  15  16  17  18  19  20  21  22  24  25 0
 3-21G
 ****
 27  28  29  32  34  39  40  41  42  43  44  45  46  47  48  49 0
 3-21G
 ****


