%nproc=1
%NoSave
%Mem=1900MB
#P OB98/GEN NMR

erre ene a

0 1
  C      -28.021    -207.053    -234.737
  O      -28.765    -207.430    -233.595
  H      -27.165    -206.442    -234.444
  H      -27.659    -207.957    -235.236
  H      -28.655    -206.497    -235.434
  P      -29.370    -206.232    -232.715
  C      -27.507    -206.016    -230.931
  O      -28.118    -205.447    -232.080
  C      -26.868    -204.920    -230.082
  O      -25.656    -204.478    -230.751
  C      -27.765    -203.691    -229.860
  O      -27.822    -203.353    -228.469
  C      -27.058    -202.574    -230.603
  O      -27.199    -201.307    -229.969
  C      -25.609    -203.050    -230.623
  N      -21.621    -200.083    -231.771
  C      -21.914    -200.802    -230.662
  N      -22.944    -201.647    -230.457
  C      -23.705    -201.746    -231.560
  C      -23.518    -201.098    -232.771
  C      -22.432    -200.213    -232.848
  N      -22.168    -199.440    -233.957
  N      -24.512    -201.445    -233.669
  C      -25.307    -202.256    -232.997
  N      -24.865    -202.455    -231.714
  O      -30.018    -206.990    -231.459
  O      -30.375    -205.387    -233.423
  H      -28.139    -201.057    -230.029
  H      -30.977    -206.809    -231.443
  H      -21.230    -200.671    -229.826
  H      -26.227    -202.685    -233.371
  H      -25.092    -202.813    -229.684
  H      -27.469    -202.502    -231.618
  H      -28.782    -203.840    -230.237
  H      -26.565    -205.352    -229.119
  H      -26.730    -206.726    -231.242
  H      -21.437    -198.749    -233.888
  H      -22.832    -199.452    -234.722
  H      -28.266    -206.554    -230.352
  P      -29.088    -203.913    -227.650
  C      -29.658    -201.540    -226.756
  O      -30.122    -202.699    -227.441
  O      -28.490    -204.175    -226.189
  O      -29.676    -205.158    -228.230
  H      -28.639    -205.103    -225.929
  H      -30.449    -200.822    -226.693
  H      -28.834    -201.116    -227.290
  H      -29.342    -201.811    -225.770

 6  7  8  9  10  11  12  13  14  15  25  28  32  33  34  35 0
 6-311+G(2d,p)
 ****
 36  39  40 0
 6-311+G(2d,p)
 ****
 1  2  3  4  5  16  17  18  19  20  21  22  23  24 0
 3-21G
 ****
 26  27  29  30  31  37  38  41  42  43  44  45  46  47  48 0
 3-21G
 ****


