%nproc=1
%NoSave
%Mem=1900MB
#P OB98/GEN NMR

erre ene a

0 1
  C      419.561     125.240      84.285
  O      419.408     126.499      83.627
  P      418.141     127.380      84.069
  C      419.300     128.780      85.925
  O      418.685     128.778      84.642
  C      419.866     130.163      86.246
  O      420.476     130.214      87.552
  C      420.937     130.623      85.267
  O      420.331     131.115      84.083
  C      421.649     131.704      86.072
  O      420.963     132.968      85.971
  C      421.574     131.162      87.507
  N      425.867     131.835      90.120
  C      424.927     132.759      89.707
  N      425.153     134.043      90.060
  N      423.865     132.452      89.010
  C      423.767     131.130      88.729
  C      424.617     130.116      89.107
  C      425.793     130.471      89.876
  O      426.640     129.686      90.285
  N      424.158     128.894      88.687
  C      423.101     129.190      87.952
  N      422.784     130.526      87.997
  O      417.594     126.616      85.363
  O      417.093     127.487      83.010
  H      420.093     132.893      86.406
  H      416.740     126.186      85.161
  H      426.674     132.126      90.648
  H      422.517     128.473      87.392
  H      421.338     131.962      88.224
  H      422.665     131.878      85.707
  H      425.948     134.351      90.597
  H      421.628     129.800      85.049
  H      424.471     134.735      89.774
  H      419.027     130.873      86.238
  H      420.099     128.037      85.956
  H      418.557     128.476      86.669
  P      420.991     130.706      82.680
  C      419.678     128.833      81.447
  O      419.808     130.215      81.719
  O      421.784     129.357      83.031
  O      421.906     131.733      82.100
  H      422.666     129.381      82.616
  H      418.626     128.605      81.263
  H      420.032     128.221      82.284
  H      420.257     128.586      80.552
  H      420.433     124.746      83.911
  H      418.700     124.633      84.098
  H      419.664     125.398      85.338

 3  4  5  6  7  8  9  10  11  12  23  26  30  31 0
 6-311+G(2d,p)
 ****
 33  35  36  37  38 0
 6-311+G(2d,p)
 ****
 1  2  13  14  15  16  17  18  19  20  21  22  24  25 0
 3-21G
 ****
 27  28  29  32  34  39  40  41  42  43  44  45  46  47  48  49 0
 3-21G
 ****


