%nproc=1
%NoSave
%Mem=1900MB
#P OB98/GEN NMR

erre ene a

0 1
  C      327.328      23.135    -398.993
  O      328.504      23.033    -399.775
  P      328.487      23.389    -401.340
  C      328.279      21.995    -403.469
  O      327.877      22.126    -402.117
  C      327.859      20.637    -404.048
  O      328.592      19.582    -403.354
  C      326.360      20.318    -403.906
  O      325.997      19.552    -405.059
  C      326.322      19.432    -402.672
  O      325.141      18.631    -402.600
  C      327.613      18.646    -402.856
  N      327.218      14.631    -399.710
  C      326.562      14.949    -400.845
  N      326.703      16.056    -401.613
  C      327.641      16.866    -401.102
  C      328.373      16.693    -399.944
  C      328.148      15.491    -399.229
  N      328.825      15.138    -398.088
  N      329.195      17.784    -399.720
  C      328.970      18.587    -400.730
  N      328.085      18.053    -401.628
  O      329.776      23.896    -401.887
  O      327.331      24.490    -401.467
  H      324.372      19.227    -402.506
  H      327.722      25.376    -401.605
  H      325.832      14.227    -401.184
  H      329.408      19.575    -400.862
  H      327.502      17.844    -403.602
  H      326.362      20.049    -401.771
  H      325.728      21.201    -403.810
  H      328.165      20.600    -405.096
  H      329.370      22.078    -403.505
  H      328.678      14.212    -397.737
  H      329.693      15.629    -397.866
  H      327.848      22.804    -404.064
  P      324.509      19.659    -405.654
  C      322.275      18.561    -405.062
  O      323.553      18.945    -404.591
  O      324.345      19.202    -407.061
  O      324.152      21.209    -405.482
  H      323.389      21.428    -406.056
  H      321.614      19.423    -405.078
  H      321.858      17.794    -404.395
  H      322.334      18.142    -406.078
  H      327.546      22.856    -397.983
  H      326.578      22.482    -399.389
  H      326.971      24.143    -399.016

 3  4  5  6  7  8  9  10  11  12  22  25  29  30  31  32 0
 6-311+G(2d,p)
 ****
 33  36  37 0
 6-311+G(2d,p)
 ****
 1  2  13  14  15  16  17  18  19  20  21  23  24  26 0
 3-21G
 ****
 27  28  34  35  38  39  40  41  42  43  44  45  46  47  48 0
 3-21G
 ****


