%nproc=1
%NoSave
%Mem=1900MB
#P OB98/GEN NMR

erre ene a

0 1
  C     -269.760     -34.405     241.189
  O     -270.357     -33.435     242.027
  P     -271.948     -33.269     242.054
  C     -272.476     -33.920     244.482
  O     -272.538     -34.317     243.114
  C     -273.155     -34.970     245.367
  O     -272.440     -36.227     245.294
  C     -273.191     -34.603     246.845
  O     -274.191     -33.634     247.105
  C     -273.443     -35.967     247.479
  O     -274.841     -36.300     247.427
  C     -272.635     -36.896     246.559
  N     -270.144     -40.481     249.205
  C     -271.452     -40.312     248.934
  N     -272.051     -39.306     248.249
  C     -271.138     -38.405     247.855
  C     -269.766     -38.425     248.088
  C     -269.265     -39.535     248.781
  N     -267.919     -39.753     249.010
  N     -269.171     -37.299     247.551
  C     -270.154     -36.615     247.010
  N     -271.352     -37.270     247.118
  O     -272.612     -33.288     240.713
  O     -272.174     -31.862     242.775
  H     -274.927     -37.225     247.725
  H     -272.639     -31.251     242.167
  H     -272.120     -41.090     249.300
  H     -270.059     -35.649     246.528
  H     -273.179     -37.826     246.342
  H     -273.136     -36.004     248.529
  H     -272.205     -34.235     247.162
  H     -274.169     -35.135     244.981
  H     -272.993     -32.960     244.586
  H     -267.664     -40.654     249.385
  H     -267.251     -39.242     248.445
  H     -271.430     -33.800     244.776
  P     -273.812     -32.079     247.129
  C     -275.401     -31.323     245.263
  O     -274.054     -31.523     245.643
  O     -272.480     -31.753     247.722
  O     -275.000     -31.419     247.960
  H     -274.665     -30.648     248.455
  H     -275.855     -32.290     245.004
  H     -275.432     -30.671     244.389
  H     -275.977     -30.860     246.072
  H     -268.697     -34.370     241.304
  H     -270.015     -34.202     240.170
  H     -270.116     -35.377     241.459

 3  4  5  6  7  8  9  10  11  12  22  25  29  30  31  32 0
 6-311+G(2d,p)
 ****
 33  36  37 0
 6-311+G(2d,p)
 ****
 1  2  13  14  15  16  17  18  19  20  21  23  24  26 0
 3-21G
 ****
 27  28  34  35  38  39  40  41  42  43  44  45  46  47  48 0
 3-21G
 ****


