%nproc=1
%NoSave
%Mem=1900MB
#P OB98/GEN NMR

erre ene a

0 1
  C     -162.548     237.379      32.049
  O     -161.710     238.293      32.738
  P     -161.732     239.823      32.236
  C     -160.582     241.125      30.285
  O     -160.768     239.891      30.958
  C     -159.418     240.999      29.296
  O     -158.160     240.977      30.000
  C     -159.454     239.737      28.448
  O     -160.337     239.896      27.350
  C     -157.990     239.602      28.044
  O     -157.680     240.466      26.934
  C     -157.264     240.059      29.318
  N     -154.601     235.778      29.733
  C     -154.892     236.542      28.612
  N     -154.356     236.124      27.443
  N     -155.639     237.615      28.641
  C     -156.116     237.904      29.873
  C     -155.913     237.220      31.050
  C     -155.043     236.063      31.017
  O     -154.677     235.411      31.991
  N     -156.581     237.803      32.095
  C     -157.160     238.858      31.553
  N     -156.892     238.977      30.215
  O     -160.923     240.590      33.380
  O     -163.097     240.397      32.008
  H     -156.713     240.508      26.817
  H     -161.537     241.014      34.011
  H     -154.011     234.970      29.654
  H     -157.764     239.574      32.093
  H     -156.344     240.615      29.092
  H     -157.742     238.581      27.725
  H     -153.792     235.294      27.344
  H     -159.751     238.874      29.057
  H     -154.562     236.670      26.614
  H     -159.426     241.894      28.656
  H     -160.349     241.902      31.018
  H     -161.507     241.393      29.763
  P     -161.208     238.628      26.903
  C     -160.645     236.121      26.502
  O     -160.176     237.458      26.525
  O     -161.817     239.075      25.493
  O     -162.282     238.244      27.867
  H     -162.721     238.711      25.396
  H     -160.060     235.562      25.772
  H     -161.702     236.068      26.235
  H     -160.502     235.678      27.490
  H     -162.441     236.404      32.477
  H     -162.269     237.348      31.017
  H     -163.567     237.696      32.134

 3  4  5  6  7  8  9  10  11  12  23  26  30  31 0
 6-311+G(2d,p)
 ****
 33  35  36  37  38 0
 6-311+G(2d,p)
 ****
 1  2  13  14  15  16  17  18  19  20  21  22  24  25 0
 3-21G
 ****
 27  28  29  32  34  39  40  41  42  43  44  45  46  47  48  49 0
 3-21G
 ****


