%nproc=1
%NoSave
%Mem=1900MB
#P OB98/GEN NMR

erre ene a

0 1
  C     -504.376    -479.752    -252.140
  O     -503.199    -479.770    -251.328
  P     -502.760    -478.433    -250.570
  C     -501.665    -479.155    -248.348
  O     -501.444    -478.749    -249.691
  C     -501.856    -480.670    -248.258
  O     -500.692    -481.363    -248.799
  C     -502.032    -481.155    -246.808
  O     -502.911    -482.292    -246.770
  C     -500.641    -481.633    -246.441
  O     -500.673    -482.538    -245.341
  C     -500.188    -482.235    -247.769
  N     -496.113    -485.115    -246.602
  C     -497.437    -485.317    -246.433
  N     -498.463    -484.520    -246.786
  C     -498.016    -483.411    -247.394
  C     -496.690    -483.065    -247.648
  C     -495.708    -483.971    -247.219
  N     -494.359    -483.749    -247.367
  N     -496.618    -481.845    -248.289
  C     -497.869    -481.434    -248.370
  N     -498.750    -482.358    -247.876
  O     -503.840    -477.711    -249.841
  O     -502.162    -477.533    -251.757
  H     -501.179    -483.324    -245.621
  H     -502.463    -476.602    -251.636
  H     -497.704    -486.246    -245.936
  H     -498.185    -480.479    -248.766
  H     -500.619    -483.233    -247.934
  H     -500.020    -480.771    -246.161
  H     -502.410    -480.399    -246.119
  H     -502.715    -480.957    -248.872
  H     -502.545    -478.641    -247.947
  H     -493.729    -484.400    -246.929
  H     -494.051    -482.840    -247.686
  H     -500.823    -478.819    -247.732
  P     -504.473    -481.961    -246.542
  C     -505.800    -483.385    -248.290
  O     -505.268    -483.284    -246.986
  O     -504.913    -480.684    -247.167
  O     -504.584    -481.965    -244.941
  H     -504.199    -482.748    -244.507
  H     -506.180    -484.397    -248.438
  H     -505.029    -483.192    -249.042
  H     -506.623    -482.682    -248.422
  H     -504.526    -480.719    -252.572
  H     -504.261    -479.027    -252.919
  H     -505.222    -479.496    -251.537

 3  4  5  6  7  8  9  10  11  12  22  25  29  30  31  32 0
 6-311+G(2d,p)
 ****
 33  36  37 0
 6-311+G(2d,p)
 ****
 1  2  13  14  15  16  17  18  19  20  21  23  24  26 0
 3-21G
 ****
 27  28  34  35  38  39  40  41  42  43  44  45  46  47  48 0
 3-21G
 ****


