%nproc=1
%NoSave
%Mem=1900MB
#P OB98/GEN NMR

erre ene a

0 1
  C       -6.662    -393.067     712.847
  O       -6.895    -393.886     711.696
  P       -5.601    -394.561     711.026
  C       -5.117    -392.443     709.604
  O       -5.352    -393.844     709.611
  C       -4.359    -392.021     708.338
  O       -2.974    -392.447     708.355
  C       -4.941    -392.616     707.059
  O       -6.088    -391.864     706.658
  C       -3.779    -392.483     706.087
  O       -3.730    -391.172     705.499
  C       -2.563    -392.723     707.000
  N        1.175    -395.560     705.053
  C        0.830    -394.240     704.793
  N        1.593    -393.586     703.899
  N       -0.187    -393.635     705.352
  C       -0.867    -394.415     706.226
  C       -0.599    -395.718     706.593
  C        0.513    -396.382     705.960
  O        0.875    -397.533     706.181
  N       -1.484    -396.156     707.554
  C       -2.349    -395.163     707.672
  N       -1.984    -394.061     706.935
  O       -6.111    -396.031     710.642
  O       -4.418    -394.613     711.947
  H       -3.022    -391.153     704.824
  H       -5.679    -396.695     711.214
  H        1.962    -395.981     704.595
  H       -3.231    -395.178     708.292
  H       -1.742    -392.019     706.762
  H       -3.868    -393.191     705.253
  H        2.393    -393.993     703.429
  H       -5.201    -393.678     707.210
  H        1.375    -392.621     703.692
  H       -4.382    -390.928     708.282
  H       -4.537    -392.148     710.487
  H       -6.073    -391.924     709.667
  P       -7.527    -392.382     707.128
  C       -8.349    -393.138     704.782
  O       -8.526    -392.258     705.876
  O       -8.019    -391.234     708.123
  O       -7.518    -393.720     707.803
  H       -8.412    -391.640     708.933
  H       -9.318    -393.308     704.308
  H       -7.939    -394.109     705.098
  H       -7.672    -392.679     704.057
  H       -7.593    -392.676     713.201
  H       -6.013    -392.258     712.584
  H       -6.206    -393.654     713.616

 3  4  5  6  7  8  9  10  11  12  23  26  30  31 0
 6-311+G(2d,p)
 ****
 33  35  36  37  38 0
 6-311+G(2d,p)
 ****
 1  2  13  14  15  16  17  18  19  20  21  22  24  25 0
 3-21G
 ****
 27  28  29  32  34  39  40  41  42  43  44  45  46  47  48  49 0
 3-21G
 ****


