%nproc=1
%NoSave
%Mem=1900MB
#P OB98/GEN NMR

erre ene a

0 1
  C      163.498      97.013     270.097
  O      162.842      95.984     270.814
  H      163.101      97.977     270.424
  H      163.312      96.900     269.024
  H      164.572      96.985     270.296
  P      163.305      94.481     270.493
  C      163.223      93.013     268.360
  O      162.932      94.275     268.946
  C      163.169      93.104     266.836
  O      164.178      94.009     266.348
  C      163.416      91.781     266.120
  O      162.240      90.992     266.096
  C      163.789      92.278     264.728
  O      162.595      92.624     263.999
  C      164.602      93.552     265.034
  N      168.846      93.331     262.154
  C      167.538      93.347     261.820
  N      166.461      93.364     262.641
  C      166.844      93.361     263.928
  C      168.143      93.345     264.418
  C      169.177      93.338     263.464
  N      170.512      93.332     263.808
  N      168.148      93.344     265.797
  C      166.874      93.416     266.133
  N      166.046      93.389     265.042
  O      162.817      93.438     271.437
  O      164.898      94.657     270.438
  H      162.063      91.810     263.903
  H      165.135      95.499     270.011
  H      167.321      93.351     260.756
  H      166.502      93.500     267.149
  H      164.381      94.354     264.320
  H      164.313      91.520     264.142
  H      164.270      91.245     266.547
  H      162.194      93.525     266.560
  H      162.515      92.256     268.711
  H      171.181      93.156     263.072
  H      170.753      93.213     264.782
  H      164.229      92.725     268.686
  P      162.203      89.601     265.295
  C      161.982      88.878     262.835
  O      161.967      89.968     263.750
  O      161.263      88.582     265.840
  O      163.717      89.086     265.317
  H      163.745      88.115     265.427
  H      161.815      89.243     261.843
  H      161.210      88.184     263.094
  H      162.932      88.388     262.880

 6  7  8  9  10  11  12  13  14  15  25  28  32  33  34  35 0
 6-311+G(2d,p)
 ****
 36  39  40 0
 6-311+G(2d,p)
 ****
 1  2  3  4  5  16  17  18  19  20  21  22  23  24 0
 3-21G
 ****
 26  27  29  30  31  37  38  41  42  43  44  45  46  47 0
 3-21G
 ****
 48 0
 3-21G
 ****


