%nproc=1
%NoSave
%Mem=1900MB
#P OB98/GEN NMR

erre ene a

0 1
  C      -84.157    -217.911    -556.507
  O      -83.923    -218.832    -555.456
  H      -84.678    -217.043    -556.100
  H      -84.782    -218.372    -557.277
  H      -83.206    -217.587    -556.939
  P      -83.142    -220.178    -555.845
  C      -80.835    -219.040    -555.542
  O      -81.742    -219.664    -556.437
  C      -79.455    -219.693    -555.630
  O      -79.555    -221.118    -555.444
  C      -78.760    -219.501    -556.976
  O      -78.147    -218.224    -557.049
  C      -77.733    -220.619    -556.928
  O      -76.610    -220.214    -556.118
  C      -78.503    -221.755    -556.221
  N      -77.606    -225.557    -559.549
  C      -76.780    -224.666    -558.964
  N      -77.096    -223.654    -558.122
  C      -78.418    -223.614    -557.898
  C      -79.385    -224.460    -558.427
  C      -78.933    -225.481    -559.278
  N      -79.781    -226.395    -559.869
  N      -80.638    -224.113    -557.971
  C      -80.430    -223.104    -557.143
  N      -79.106    -222.744    -557.093
  O      -83.902    -221.148    -556.681
  O      -82.717    -220.716    -554.393
  H      -76.123    -219.533    -556.610
  H      -82.459    -219.973    -553.817
  H      -75.726    -224.774    -559.198
  H      -81.190    -222.623    -556.551
  H      -77.864    -222.300    -555.518
  H      -77.343    -220.867    -557.917
  H      -79.445    -219.677    -557.810
  H      -78.841    -219.296    -554.812
  H      -81.210    -219.109    -554.513
  H      -79.398    -226.980    -560.596
  H      -80.773    -226.258    -559.765
  H      -80.773    -217.987    -555.812
  P      -78.294    -217.323    -558.367
  C      -80.042    -215.688    -557.424
  O      -79.789    -216.735    -558.356
  O      -77.907    -217.992    -559.640
  O      -77.397    -216.031    -558.075
  H      -76.936    -215.748    -558.888
  H      -81.063    -215.377    -557.505
  H      -79.399    -214.859    -557.635
  H      -79.855    -216.041    -556.431

 6  7  8  9  10  11  12  13  14  15  25  28  32  33  34  35 0
 6-311+G(2d,p)
 ****
 36  39  40 0
 6-311+G(2d,p)
 ****
 1  2  3  4  5  16  17  18  19  20  21  22  23  24 0
 3-21G
 ****
 26  27  29  30  31  37  38  41  42  43  44  45  46  47 0
 3-21G
 ****
 48 0
 3-21G
 ****


