%nproc=1
%NoSave
%Mem=1900MB
#P OB98/GEN NMR

erre ene a

0 1
  C     -131.243       8.305       0.194
  O     -131.234       7.801      -1.132
  P     -130.508       6.414      -1.475
  C     -132.396       4.729      -1.925
  O     -131.487       5.248      -0.963
  C     -132.254       3.212      -2.037
  O     -133.305       2.707      -2.894
  C     -130.923       2.771      -2.637
  O     -130.508       1.561      -1.999
  C     -131.250       2.457      -4.087
  O     -130.326       1.500      -4.633
  C     -132.697       1.969      -3.971
  N     -134.517      -0.120      -8.292
  C     -133.811      -0.648      -7.267
  N     -133.338      -0.029      -6.164
  C     -133.712       1.260      -6.150
  C     -134.436       1.937      -7.121
  C     -134.845       1.191      -8.238
  N     -135.576       1.729      -9.276
  N     -134.598       3.264      -6.771
  C     -134.002       3.377      -5.606
  N     -133.460       2.193      -5.182
  O     -129.105       6.301      -0.991
  O     -130.602       6.293      -3.065
  H     -130.505       0.644      -4.190
  H     -129.782       5.905      -3.424
  H     -133.593      -1.709      -7.347
  H     -133.924       4.290      -5.034
  H     -132.745       0.902      -3.722
  H     -131.179       3.372      -4.684
  H     -130.141       3.531      -2.543
  H     -132.399       2.772      -1.044
  H     -132.169       5.183      -2.895
  H     -135.928       1.091      -9.972
  H     -135.966       2.653      -9.154
  H     -133.418       5.002      -1.645
  P     -128.939       1.210      -2.110
  C     -128.900       1.768       0.432
  O     -128.277       1.898      -0.825
  O     -128.378       1.572      -3.445
  O     -128.950      -0.360      -1.790
  H     -129.731      -0.612      -1.252
  H     -128.324       2.334       1.169
  H     -128.917       0.718       0.738
  H     -129.919       2.163       0.398
  H     -131.773       9.234       0.219
  H     -130.237       8.459       0.524
  H     -131.726       7.602       0.840

 3  4  5  6  7  8  9  10  11  12  22  25  29  30  31  32 0
 6-311+G(2d,p)
 ****
 33  36  37 0
 6-311+G(2d,p)
 ****
 1  2  13  14  15  16  17  18  19  20  21  23  24  26 0
 3-21G
 ****
 27  28  34  35  38  39  40  41  42  43  44  45  46  47  48 0
 3-21G
 ****


