%nproc=1
%NoSave
%Mem=1900MB
#P OB98/GEN NMR

erre ene a

0 1
  C       70.545      29.434      11.572
  O       69.867      30.424      12.328
  P       68.266      30.506      12.316
  C       68.190      32.473      10.662
  O       67.849      31.110      10.888
  C       67.070      33.190       9.910
  O       66.985      32.646       8.571
  C       65.701      33.027      10.559
  O       64.961      34.239      10.390
  C       65.024      31.939       9.742
  O       63.593      32.058       9.798
  C       65.640      32.175       8.359
  N       65.686      30.232       3.605
  C       65.671      31.506       4.055
  N       65.633      31.950       5.330
  C       65.669      30.917       6.189
  C       65.690      29.565       5.880
  C       65.696      29.230       4.514
  N       65.724      27.929       4.060
  N       65.690      28.801       7.033
  C       65.690      29.676       8.012
  N       65.687      30.969       7.556
  O       67.661      31.206      13.485
  O       67.785      28.985      12.220
  H       63.358      32.904       9.364
  H       66.988      28.844      12.766
  H       65.687      32.274       3.287
  H       65.680      29.431       9.064
  H       65.094      32.944       7.800
  H       65.297      30.955      10.141
  H       65.761      32.770      11.622
  H       67.334      34.250       9.818
  H       69.104      32.506      10.063
  H       65.850      27.788       3.070
  H       65.907      27.195       4.731
  H       68.386      32.963      11.622
  P       64.226      34.804      11.708
  C       62.078      33.444      11.147
  O       63.120      33.699      12.061
  O       63.755      36.210      11.529
  O       65.375      34.617      12.809
  H       66.005      33.907      12.555
  H       61.409      32.694      11.579
  H       62.484      33.046      10.213
  H       61.508      34.355      10.948
  H       71.601      29.542      11.709
  H       70.306      29.551      10.536
  H       70.240      28.463      11.901

 3  4  5  6  7  8  9  10  11  12  22  25  29  30  31  32 0
 6-311+G(2d,p)
 ****
 33  36  37 0
 6-311+G(2d,p)
 ****
 1  2  13  14  15  16  17  18  19  20  21  23  24  26 0
 3-21G
 ****
 27  28  34  35  38  39  40  41  42  43  44  45  46  47  48 0
 3-21G
 ****


