%nproc=1
%NoSave
%Mem=1900MB
#P OB98/GEN NMR

erre ene a

0 1
  C        1.822    -120.810      85.330
  O        0.768    -121.635      85.779
  H        2.395    -120.473      86.197
  H        1.428    -119.934      84.809
  H        2.489    -121.370      84.668
  P       -0.271    -122.212      84.705
  C        1.333    -124.230      84.570
  O        0.518    -123.314      83.845
  C        1.539    -125.512      83.755
  O        0.257    -126.179      83.654
  C        2.050    -125.230      82.335
  O        3.225    -125.966      82.006
  C        0.815    -125.450      81.469
  O        1.088    -125.821      80.134
  C        0.010    -126.481      82.268
  N       -1.423    -126.462      81.983
  C       -1.928    -127.485      81.187
  O       -1.270    -128.414      80.725
  N       -3.274    -127.422      80.928
  C       -4.134    -126.462      81.368
  O       -5.331    -126.462      81.109
  C       -3.537    -125.397      82.187
  C       -2.228    -125.443      82.452
  O       -0.996    -121.191      83.895
  O       -1.281    -123.095      85.578
  H        1.663    -125.131      79.744
  H       -2.113    -122.603      85.711
  H       -3.653    -128.164      80.361
  H       -4.188    -124.612      82.545
  H       -1.754    -124.675      83.054
  H        0.375    -127.488      82.069
  H        0.252    -124.508      81.430
  H        2.371    -124.187      82.235
  H        2.215    -126.175      84.305
  H        0.829    -124.456      85.513
  H        2.303    -123.767      84.784
  P        4.711    -125.390      82.091
  C        5.525    -127.280      83.716
  O        5.363    -125.893      83.463
  O        4.862    -123.945      81.761
  O        5.501    -126.234      80.964
  H        6.187    -125.638      80.601
  H        5.975    -127.417      84.677
  H        6.154    -127.709      82.964
  H        4.569    -127.760      83.698

 6  7  8  9  10  11  12  13  14  15  16  26  31  32  33  34  35 0
 6-311+G(2d,p)
 ****
 36  37 0
 6-311+G(2d,p)
 ****
 1  2  3  4  5  17  18  19  20  21  22  23  24  25 0
 3-21G
 ****
 27  28  29  30  38  39  40  41  42  43  44  45 0
 3-21G
 ****


