%nproc=1
%NoSave
%Mem=1900MB
#P OB98/GEN NMR

erre ene a

0 1
  C      169.877     104.884       7.290
  O      170.537     104.128       6.273
  P      169.595     103.437       5.168
  C      169.191     101.173       6.355
  O      168.626     102.392       5.898
  C      168.118     100.139       6.714
  O      168.717      98.875       7.102
  C      167.224     100.576       7.883
  O      165.910     100.047       7.627
  C      167.813      99.860       9.068
  O      166.876      99.747      10.139
  C      168.236      98.532       8.420
  N      169.247      97.809       9.191
  C      168.902      96.530       9.649
  O      167.762      96.090       9.461
  N      169.833      95.799      10.344
  C      170.993      96.313      10.604
  N      171.874      95.539      11.302
  C      171.379      97.675      10.194
  C      170.469      98.352       9.492
  O      170.612     102.508       4.345
  O      168.911     104.423       4.268
  H      166.009      99.479       9.755
  H      170.508     102.668       3.387
  H      172.358      98.076      10.454
  H      170.663      99.358       9.146
  H      167.372      97.868       8.294
  H      168.700     100.405       9.438
  H      167.158     101.666       7.997
  H      167.507      99.958       5.825
  H      171.574      94.603      11.558
  H      169.815     101.364       7.236
  H      172.800      95.840      11.560
  H      169.866     100.780       5.582
  P      164.854     100.963       6.842
  C      163.545     101.608       8.962
  O      164.385     102.063       7.914
  O      163.566     100.003       6.792
  O      165.217     101.456       5.481
  H      162.863     100.414       6.266
  H      163.408     102.417       9.676
  H      164.006     100.760       9.475
  H      162.572     101.316       8.557
  H      170.605     105.291       7.961
  H      169.210     104.247       7.832
  H      169.322     105.680       6.839

 3  4  5  6  7  8  9  10  11  12  13  21  23  27  28  29  30  32 0
 6-311+G(2d,p)
 ****
 34  35 0
 6-311+G(2d,p)
 ****
 1  2  14  15  16  17  18  19  20  22  24  25  26 0
 3-21G
 ****
 31  33  36  37  38  39  40  41  42  43  44  45  46 0
 3-21G
 ****


