%nproc=1
%NoSave
%Mem=1900MB
#P OB98/GEN NMR

erre ene a

0 1
  C     -264.818     651.837      99.566
  O     -265.297     650.990      98.538
  H     -264.149     651.283     100.233
  H     -264.261     652.658      99.109
  H     -265.658     652.250     100.136
  P     -266.054     649.658      99.015
  C     -265.666     648.415      96.772
  O     -266.612     648.955      97.680
  C     -266.366     647.585      95.705
  O     -267.198     646.573      96.323
  C     -267.308     648.371      94.799
  O     -266.600     649.080      93.786
  C     -268.148     647.247      94.211
  O     -267.429     646.613      93.130
  C     -268.275     646.278      95.393
  N     -273.278     645.111      95.317
  C     -272.276     644.848      94.441
  N     -270.978     645.204      94.517
  C     -270.734     645.875      95.656
  C     -271.646     646.208      96.643
  C     -272.976     645.805      96.440
  N     -273.991     646.078      97.331
  N     -271.031     646.890      97.675
  C     -269.764     646.966      97.319
  N     -269.537     646.375      96.101
  O     -267.382     650.213      99.717
  O     -265.276     648.774      99.930
  H     -267.996     645.877      92.815
  H     -267.606     649.640     100.476
  H     -272.565     644.285      93.557
  H     -268.985     647.435      97.900
  H     -268.140     645.233      95.078
  H     -269.107     647.587      93.809
  H     -267.954     649.044      95.387
  H     -265.599     647.073      95.109
  H     -264.958     647.778      97.310
  H     -274.869     645.598      97.229
  H     -273.754     646.598      98.176
  H     -265.111     649.240      96.308
  P     -266.298     650.639      94.050
  C     -267.780     651.182      91.985
  O     -266.522     651.365      92.633
  O     -264.712     650.671      94.240
  O     -267.007     651.238      95.217
  H     -264.456     651.449      94.776
  H     -267.786     651.719      91.059
  H     -268.563     651.549      92.615
  H     -267.935     650.141      91.794

 6  7  8  9  10  11  12  13  14  15  25  28  32  33  34  35 0
 6-311+G(2d,p)
 ****
 36  39  40 0
 6-311+G(2d,p)
 ****
 1  2  3  4  5  16  17  18  19  20  21  22  23  24 0
 3-21G
 ****
 26  27  29  30  31  37  38  41  42  43  44  45  46  47  48 0
 3-21G
 ****


