%nproc=1
%NoSave
%Mem=1900MB
#P OB98/GEN NMR

erre ene a

0 1
  C      201.829     -19.063      90.783
  O      201.508     -18.744      89.446
  H      201.646     -18.184      91.406
  H      202.882     -19.343      90.872
  H      201.196     -19.881      91.141
  P      201.798     -19.836      88.310
  C      202.385     -18.720      86.053
  O      201.357     -19.178      86.916
  C      201.865     -17.621      85.118
  O      200.894     -18.203      84.203
  C      201.163     -16.465      85.849
  O      201.361     -15.281      85.066
  C      199.715     -16.910      85.793
  O      198.839     -15.859      86.111
  C      199.656     -17.479      84.372
  N      198.493     -18.324      84.156
  C      197.613     -17.919      83.150
  O      197.831     -16.890      82.510
  N      196.490     -18.670      82.915
  C      196.233     -19.696      83.662
  N      195.096     -20.390      83.387
  C      197.109     -20.126      84.774
  C      198.213     -19.405      84.960
  O      201.245     -21.198      88.562
  O      203.397     -19.867      88.205
  H      197.904     -16.165      86.099
  H      203.739     -20.674      88.633
  H      196.841     -20.978      85.380
  H      198.917     -19.641      85.752
  H      199.644     -16.672      83.629
  H      199.529     -17.704      86.524
  H      201.536     -16.313      86.864
  H      202.698     -17.255      84.507
  H      194.522     -20.055      82.623
  H      202.729     -19.578      85.466
  H      194.785     -21.192      83.914
  H      203.227     -18.335      86.638
  P      202.755     -14.492      85.014
  C      202.622     -11.915      85.058
  O      202.547     -13.094      84.260
  O      203.893     -15.305      84.486
  O      203.042     -14.056      86.531
  H      204.006     -14.028      86.677
  H      202.467     -11.055      84.440
  H      203.587     -11.855      85.516
  H      201.868     -11.949      85.817

 6  7  8  9  10  11  12  13  14  15  16  26  30  31  32  33  35 0
 6-311+G(2d,p)
 ****
 37  38 0
 6-311+G(2d,p)
 ****
 1  2  3  4  5  17  18  19  20  21  22  23  24  25 0
 3-21G
 ****
 27  28  29  34  36  39  40  41  42  43  44  45  46 0
 3-21G
 ****


