%nproc=1
%NoSave
%Mem=1900MB
#P OB98/GEN NMR

erre ene a

0 1
  C       70.754     377.167      58.400
  O       71.473     376.136      59.040
  P       72.528     376.474      60.199
  C       73.387     375.159      62.239
  O       72.293     375.381      61.352
  C       72.906     374.437      63.494
  O       71.920     375.227      64.209
  C       72.198     373.118      63.220
  O       72.966     372.070      62.671
  C       71.519     372.859      64.553
  O       72.427     372.291      65.496
  C       71.123     374.296      64.982
  N       69.694     374.538      64.816
  C       68.979     374.793      65.981
  O       69.490     374.820      67.103
  N       67.630     374.988      65.828
  C       66.939     374.910      64.656
  O       65.724     375.053      64.596
  C       67.746     374.622      63.459
  C       69.064     374.451      63.590
  O       72.521     377.887      60.673
  O       73.926     376.008      59.571
  H       71.992     372.302      66.370
  H       73.970     375.063      59.335
  H       67.094     375.161      66.663
  H       67.229     374.566      62.510
  H       69.680     374.237      62.722
  H       71.380     374.461      66.034
  H       70.680     372.164      64.458
  H       71.400     373.306      62.488
  H       73.761     374.304      64.162
  H       73.812     376.127      62.528
  H       74.168     374.590      61.725
  P       72.471     371.157      61.452
  C       73.571     369.808      59.530
  O       73.762     370.604      60.678
  O       71.349     371.693      60.625
  O       71.967     369.839      62.222
  H       71.231     369.439      61.718
  H       74.552     369.488      59.159
  H       73.074     370.386      58.742
  H       72.982     368.920      59.773
  H       70.105     376.744      57.662
  H       71.439     377.840      57.929
  H       70.172     377.698      59.124

 3  4  5  6  7  8  9  10  11  12  13  23  28  29  30  31  32 0
 6-311+G(2d,p)
 ****
 33  34 0
 6-311+G(2d,p)
 ****
 1  2  14  15  16  17  18  19  20  21  22  24  25  26  27 0
 3-21G
 ****
 35  36  37  38  39  40  41  42  43  44  45 0
 3-21G
 ****


