%nproc=1
%NoSave
%Mem=1900MB
#P OB98/GEN NMR

erre ene a

0 1
  C      150.271    -230.422      11.282
  O      149.186    -229.777      11.927
  P      148.227    -230.673      12.853
  C      146.451    -232.515      12.387
  O      147.533    -231.744      11.882
  C      146.519    -233.939      11.841
  O      147.820    -234.515      12.072
  C      145.533    -234.902      12.487
  O      144.229    -234.791      11.940
  C      146.150    -236.241      12.120
  O      145.806    -236.587      10.764
  C      147.651    -235.944      12.231
  N      149.428    -239.878      14.871
  C      149.120    -239.782      13.529
  N      149.249    -240.913      12.801
  N      148.724    -238.680      12.951
  C      148.634    -237.631      13.804
  C      148.915    -237.601      15.152
  C      149.338    -238.833      15.781
  O      149.575    -238.993      16.974
  N      148.713    -236.353      15.678
  C      148.314    -235.624      14.654
  N      148.208    -236.363      13.505
  O      147.030    -229.678      13.218
  O      148.885    -231.234      14.068
  H      146.186    -237.473      10.597
  H      146.534    -230.019      13.987
  H      149.723    -240.754      15.271
  H      148.075    -234.570      14.702
  H      148.224    -236.431      11.437
  H      145.799    -237.061      12.755
  H      149.487    -241.809      13.199
  H      145.526    -234.792      13.579
  H      148.968    -240.888      11.828
  H      146.356    -233.893      10.755
  H      145.509    -232.052      12.088
  H      146.497    -232.528      13.480
  P      143.008    -235.239      12.883
  C      143.053    -237.261      14.514
  O      143.261    -236.788      13.197
  O      141.762    -235.245      11.880
  O      142.782    -234.354      14.062
  H      140.933    -235.093      12.369
  H      143.007    -238.353      14.492
  H      142.113    -236.881      14.924
  H      143.884    -236.956      15.153
  H      150.818    -229.707      10.704
  H      149.897    -231.190      10.638
  H      150.916    -230.856      12.017

 3  4  5  6  7  8  9  10  11  12  23  26  30  31 0
 6-311+G(2d,p)
 ****
 33  35  36  37  38 0
 6-311+G(2d,p)
 ****
 1  2  13  14  15  16  17  18  19  20  21  22  24  25 0
 3-21G
 ****
 27  28  29  32  34  39  40  41  42  43  44  45  46  47  48  49 0
 3-21G
 ****


