%nproc=1
%NoSave
%Mem=1900MB
#P OB98/GEN NMR

erre ene a

0 1
  C      -49.220    -891.730     264.378
  O      -50.571    -891.880     264.022
  P      -51.527    -893.000     264.648
  C      -50.616    -895.080     263.379
  O      -51.702    -894.190     263.560
  C      -50.720    -895.930     262.105
  O      -51.783    -896.920     262.270
  C      -51.148    -895.050     260.927
  O      -50.180    -894.310     260.209
  C      -52.029    -895.940     260.068
  O      -51.334    -896.520     258.960
  C      -52.490    -897.020     261.041
  N      -57.124    -898.470     259.550
  C      -55.906    -898.940     259.155
  N      -55.928    -899.790     258.086
  N      -54.767    -898.630     259.728
  C      -54.902    -897.690     260.715
  C      -56.075    -897.170     261.210
  C      -57.329    -897.550     260.599
  O      -58.427    -897.090     260.876
  N      -55.833    -896.190     262.165
  C      -54.526    -896.140     262.220
  N      -53.916    -896.990     261.338
  O      -52.737    -892.510     265.386
  O      -50.549    -893.680     265.734
  H      -51.091    -895.800     258.352
  H      -51.095    -893.950     266.502
  H      -57.960    -898.690     259.019
  H      -53.966    -895.460     262.844
  H      -52.273    -898.010     260.629
  H      -52.864    -895.340     259.629
  H      -56.742    -899.940     257.529
  H      -51.810    -894.280     261.335
  H      -55.025    -900.000     257.651
  H      -49.806    -896.510     261.930
  H      -50.560    -895.720     264.264
  H      -49.672    -894.510     263.356
  P      -50.115    -892.710     260.046
  C      -52.156    -892.290     258.555
  O      -50.752    -892.330     258.622
  O      -48.571    -892.390     259.845
  O      -50.664    -891.940     261.209
  H      -48.399    -891.450     260.089
  H      -52.484    -892.320     257.529
  H      -52.528    -891.350     258.997
  H      -52.590    -893.130     259.102
  H      -48.794    -890.917     263.827
  H      -48.689    -892.631     264.152
  H      -49.148    -891.527     265.426

 3  4  5  6  7  8  9  10  11  12  23  26  30  31 0
 6-311+G(2d,p)
 ****
 33  35  36  37  38 0
 6-311+G(2d,p)
 ****
 1  2  13  14  15  16  17  18  19  20  21  22  24  25 0
 3-21G
 ****
 27  28  29  32  34  39  40  41  42  43  44  45  46  47  48  49 0
 3-21G
 ****


