%nproc=1
%NoSave
%Mem=1900MB
#P OB98/GEN NMR

erre ene a

0 1
  C      385.821      -9.812     -84.379
  O      386.795      -8.793     -84.391
  H      384.839      -9.354     -84.531
  H      385.819     -10.326     -83.413
  H      385.999     -10.529     -85.186
  P      388.335      -9.203     -84.185
  C      388.859      -6.718     -84.703
  O      389.069      -7.815     -83.829
  C      388.960      -5.404     -83.937
  O      390.270      -5.241     -83.349
  C      388.766      -4.151     -84.784
  O      387.421      -3.924     -85.171
  C      389.272      -3.099     -83.813
  O      388.282      -2.860     -82.800
  C      390.515      -3.812     -83.233
  N      391.752      -3.450     -83.928
  C      392.398      -2.287     -83.494
  O      391.932      -1.616     -82.571
  N      393.553      -1.894     -84.126
  C      394.004      -2.583     -85.130
  N      395.147      -2.141     -85.732
  C      393.340      -3.799     -85.640
  C      392.235      -4.169     -84.998
  O      388.955      -9.995     -85.292
  O      388.362      -9.951     -82.773
  H      387.551      -2.375     -83.230
  H      389.294     -10.238     -82.599
  H      393.738      -4.322     -86.494
  H      391.687      -5.051     -85.318
  H      390.633      -3.584     -82.165
  H      389.486      -2.137     -84.293
  H      389.427      -4.165     -85.661
  H      388.237      -5.447     -83.114
  H      395.573      -1.304     -85.363
  H      387.874      -6.829     -85.164
  H      395.524      -2.574     -86.559
  H      389.622      -6.717     -85.494
  P      387.162      -3.511     -86.705
  C      384.619      -3.944     -86.316
  O      385.627      -3.071     -86.801
  O      387.216      -4.914     -87.470
  O      388.126      -2.514     -87.264
  H      388.096      -5.050     -87.880
  H      383.659      -3.494     -86.458
  H      384.776      -4.126     -85.273
  H      384.662      -4.870     -86.850

 6  7  8  9  10  11  12  13  14  15  16  26  30  31  32  33  35 0
 6-311+G(2d,p)
 ****
 37  38 0
 6-311+G(2d,p)
 ****
 1  2  3  4  5  17  18  19  20  21  22  23  24  25 0
 3-21G
 ****
 27  28  29  34  36  39  40  41  42  43  44  45  46 0
 3-21G
 ****


