%nproc=1
%NoSave
%Mem=1900MB
#P OB98/GEN NMR

erre ene a

0 1
  C     -847.386    -897.960     231.225
  O     -848.313    -898.850     231.790
  P     -849.617    -898.290     232.559
  C     -850.069    -896.590     234.521
  O     -849.129    -897.310     233.727
  C     -849.671    -896.730     235.986
  O     -848.351    -896.180     236.201
  C     -850.648    -895.970     236.888
  O     -851.656    -896.830     237.375
  C     -849.741    -895.420     237.980
  O     -849.475    -896.460     238.973
  C     -848.446    -895.120     237.180
  N     -848.370    -893.810     236.475
  C     -848.380    -892.640     237.189
  O     -848.403    -892.570     238.413
  N     -848.376    -891.480     236.436
  C     -848.312    -891.420     235.066
  O     -848.547    -890.420     234.401
  C     -848.034    -892.690     234.387
  C     -848.112    -893.820     235.094
  O     -850.147    -899.580     233.358
  O     -850.675    -897.700     231.685
  H     -850.284    -896.590     239.463
  H     -850.875    -900.000     232.878
  H     -848.513    -890.610     236.930
  H     -847.836    -892.670     233.301
  H     -847.927    -894.770     234.607
  H     -847.555    -895.170     237.840
  H     -850.210    -894.610     238.509
  H     -851.095    -895.120     236.346
  H     -849.668    -897.780     236.252
  H     -851.079    -896.970     234.348
  H     -850.063    -895.520     234.209
  P     -852.742    -896.280     238.436
  C     -852.605    -895.640     240.913
  O     -851.891    -895.830     239.712
  O     -853.891    -897.200     238.705
  O     -853.225    -894.890     237.770
  H     -854.063    -895.030     237.279
  H     -851.898    -895.510     241.738
  H     -853.257    -896.490     241.110
  H     -853.220    -894.720     240.803
  H     -846.596    -898.514     230.762
  H     -846.980    -897.333     231.992
  H     -847.875    -897.355     230.491

 3  4  5  6  7  8  9  10  11  12  13  23  28  29  30  31  32 0
 6-311+G(2d,p)
 ****
 33  34 0
 6-311+G(2d,p)
 ****
 1  2  14  15  16  17  18  19  20  21  22  24  25  26  27 0
 3-21G
 ****
 35  36  37  38  39  40  41  42  43  44  45 0
 3-21G
 ****


