%nproc=1
%NoSave
%Mem=1900MB
#P OB98/GEN NMR

erre ene a

0 1
  C      333.929    -446.883    -536.609
  O      333.260    -445.823    -535.960
  H      333.807    -446.763    -537.687
  H      333.498    -447.842    -536.315
  H      334.996    -446.863    -536.374
  P      333.283    -445.770    -534.355
  C      334.862    -443.730    -534.089
  O      334.723    -445.138    -534.006
  C      335.632    -443.202    -532.883
  O      334.887    -443.381    -531.656
  C      336.967    -443.897    -532.621
  O      337.986    -443.545    -533.543
  C      337.253    -443.396    -531.219
  O      337.702    -442.028    -531.277
  C      335.853    -443.498    -530.575
  N      335.658    -444.751    -529.848
  C      336.016    -444.752    -528.497
  O      336.478    -443.743    -527.965
  N      335.876    -445.918    -527.770
  C      335.441    -446.987    -528.356
  N      335.328    -448.113    -527.596
  C      335.064    -447.035    -529.782
  C      335.197    -445.898    -530.461
  O      332.953    -447.048    -533.651
  O      332.304    -444.562    -533.978
  H      336.942    -441.496    -531.579
  H      332.274    -444.492    -532.990
  H      334.736    -447.965    -530.229
  H      334.951    -445.855    -531.516
  H      335.673    -442.659    -529.890
  H      338.026    -443.964    -530.706
  H      336.837    -444.986    -532.579
  H      335.763    -442.121    -533.023
  H      335.593    -448.048    -526.619
  H      333.857    -443.290    -534.131
  H      335.071    -449.009    -527.987
  H      335.406    -443.457    -534.993
  P      339.181    -444.599    -533.743
  C      338.023    -445.830    -535.734
  O      338.525    -445.899    -534.409
  O      339.516    -445.055    -532.244
  O      340.377    -444.073    -534.465
  H      340.294    -444.566    -531.904
  H      337.624    -446.783    -536.014
  H      338.815    -445.564    -536.402
  H      337.251    -445.091    -535.785

 6  7  8  9  10  11  12  13  14  15  16  26  30  31  32  33  35 0
 6-311+G(2d,p)
 ****
 37  38 0
 6-311+G(2d,p)
 ****
 1  2  3  4  5  17  18  19  20  21  22  23  24  25 0
 3-21G
 ****
 27  28  29  34  36  39  40  41  42  43  44  45  46 0
 3-21G
 ****


