%nproc=1
%NoSave
%Mem=1900MB
#P OB98/GEN NMR

erre ene a

0 1
  C       62.879     -70.425     295.192
  O       63.591     -70.036     294.034
  H       61.827     -70.549     294.933
  H       62.965     -69.642     295.953
  H       63.262     -71.371     295.585
  P       65.193     -70.096     294.105
  C       65.887     -67.649     294.613
  O       65.661     -68.952     295.133
  C       65.883     -66.619     295.746
  O       67.006     -66.888     296.626
  C       66.016     -65.170     295.261
  O       65.181     -64.332     296.072
  C       67.476     -64.837     295.515
  O       67.701     -63.437     295.683
  C       67.757     -65.668     296.761
  N       72.351     -63.588     296.714
  C       71.100     -62.998     296.625
  N       71.072     -61.652     296.503
  N       69.983     -63.672     296.661
  C       70.164     -65.004     296.824
  C       71.338     -65.706     296.920
  C       72.576     -64.953     296.852
  O       73.711     -65.416     296.899
  N       71.108     -67.054     297.046
  C       69.792     -67.164     297.026
  N       69.174     -65.945     296.906
  O       65.640     -69.523     292.677
  O       65.772     -71.448     294.356
  H       68.671     -63.299     295.734
  H       66.098     -70.222     292.173
  H       73.183     -63.019     296.670
  H       69.243     -68.092     297.093
  H       67.432     -65.163     297.682
  H       68.084     -65.181     294.671
  H       71.888     -61.068     296.520
  H       65.743     -65.039     294.210
  H       70.169     -61.197     296.476
  H       64.974     -66.750     296.335
  H       65.095     -67.409     293.897
  H       66.853     -67.628     294.096
  P       63.878     -63.707     295.373
  C       64.962     -61.427     294.778
  O       64.357     -62.620     294.288
  O       63.233     -62.816     296.539
  O       62.914     -64.729     294.867
  H       62.421     -63.244     296.873
  H       65.230     -60.799     293.954
  H       65.840     -61.676     295.337
  H       64.271     -60.911     295.411

 6  7  8  9  10  11  12  13  14  15  26  29  33  34 0
 6-311+G(2d,p)
 ****
 36  38  39  40  41 0
 6-311+G(2d,p)
 ****
 1  2  3  4  5  16  17  18  19  20  21  22  23  24  25 0
 3-21G
 ****
 27  28  30  31  32  35  37  42  43  44  45  46  47 0
 3-21G
 ****
 48  49 0
 3-21G
 ****


