%nproc=1
%NoSave
%Mem=1900MB
#P OB98/GEN NMR

erre ene a

0 1
  C      -58.968     565.614     351.297
  O      -60.245     566.070     350.830
  P      -61.564     565.409     351.460
  C      -63.339     564.673     349.625
  O      -62.814     565.665     350.491
  C      -64.283     565.345     348.609
  O      -65.370     566.013     349.288
  C      -63.598     566.402     347.741
  O      -62.972     565.833     346.605
  C      -64.741     567.337     347.412
  O      -65.562     566.773     346.365
  C      -65.510     567.360     348.753
  N      -65.079     568.330     349.791
  C      -65.206     569.692     349.553
  O      -65.638     570.182     348.515
  N      -64.794     570.518     350.573
  C      -64.461     570.133     351.847
  O      -64.164     570.923     352.739
  C      -64.504     568.683     352.081
  C      -64.791     567.867     351.073
  O      -61.883     566.322     352.729
  O      -61.421     563.960     351.827
  H      -66.468     567.116     346.499
  H      -61.796     565.795     353.557
  H      -64.806     571.513     350.400
  H      -64.286     568.330     353.090
  H      -64.820     566.792     351.250
  H      -66.587     567.528     348.586
  H      -64.375     568.303     347.031
  H      -62.872     566.962     348.347
  H      -64.714     564.562     347.958
  H      -63.880     563.915     350.184
  H      -62.521     564.171     349.105
  P      -61.739     566.571     345.902
  C      -61.782     566.620     343.331
  O      -61.535     565.839     344.480
  O      -60.502     566.734     346.736
  O      -62.356     568.003     345.470
  H      -62.159     568.693     346.141
  H      -61.474     566.047     342.455
  H      -61.234     567.562     343.386
  H      -62.855     566.828     343.243
  H      -58.191     566.145     350.787
  H      -58.871     564.566     351.103
  H      -58.889     565.791     352.349

 3  4  5  6  7  8  9  10  11  12  13  23  28  29  30  31  32 0
 6-311+G(2d,p)
 ****
 33  34 0
 6-311+G(2d,p)
 ****
 1  2  14  15  16  17  18  19  20  21  22  24  25  26  27 0
 3-21G
 ****
 35  36  37  38  39  40  41  42  43  44  45 0
 3-21G
 ****


