%nproc=1
%NoSave
%Mem=1900MB
#P OB98/GEN NMR

erre ene a

0 1
  C     1053.928     -51.271    -547.779
  O     1055.241     -51.223    -547.198
  P     1056.589     -51.134    -548.051
  C     1057.165     -48.681    -547.379
  O     1056.831     -49.565    -548.437
  C     1057.583     -47.314    -547.927
  O     1058.695     -47.457    -548.857
  C     1056.526     -46.585    -548.718
  O     1055.494     -46.050    -547.889
  C     1057.363     -45.530    -549.442
  O     1057.580     -44.383    -548.617
  C     1058.706     -46.277    -549.678
  N     1058.932     -46.602    -551.064
  C     1060.244     -46.410    -551.553
  O     1061.098     -45.911    -550.835
  N     1060.518     -46.791    -552.840
  C     1059.554     -47.197    -553.620
  N     1059.892     -47.573    -554.895
  C     1058.154     -47.282    -553.181
  C     1057.911     -46.973    -551.914
  O     1056.630     -52.050    -549.229
  O     1057.781     -51.456    -547.013
  H     1058.535     -51.801    -547.506
  H     1056.708     -43.936    -548.479
  H     1057.363     -47.605    -553.882
  H     1056.902     -47.033    -551.507
  H     1059.531     -45.670    -549.302
  H     1056.900     -45.175    -550.367
  H     1056.084     -47.266    -549.466
  H     1057.920     -46.700    -547.073
  H     1060.869     -47.514    -555.145
  H     1058.013     -49.106    -546.809
  H     1059.228     -47.931    -555.551
  H     1056.309     -48.582    -546.688
  P     1053.992     -46.195    -548.422
  C     1053.498     -47.290    -546.121
  O     1053.272     -47.314    -547.520
  O     1054.154     -46.910    -549.853
  O     1053.243     -44.886    -548.550
  H     1053.513     -46.538    -550.473
  H     1052.599     -47.729    -545.624
  H     1053.622     -46.259    -545.749
  H     1054.360     -47.893    -545.895
  H     1053.196     -51.328    -547.001
  H     1053.848     -52.133    -548.408
  H     1053.763     -50.388    -548.360

 3  4  5  6  7  8  9  10  11  12  13  24  27  28  29  30  32 0
 6-311+G(2d,p)
 ****
 34  35 0
 6-311+G(2d,p)
 ****
 1  2  14  15  16  17  18  19  20  21  22  23  25  26 0
 3-21G
 ****
 31  33  36  37  38  39  40  41  42  43  44  45  46 0
 3-21G
 ****


