%nproc=1
%NoSave
%Mem=1900MB
#P OB98/GEN NMR

erre ene a

0 1
  C     -238.869    -538.282     577.483
  O     -238.433    -538.412     578.835
  P     -237.622    -539.655     579.421
  C     -239.597    -541.091     580.407
  O     -238.583    -540.932     579.419
  C     -239.934    -542.578     580.625
  O     -240.913    -542.687     581.702
  C     -240.546    -543.234     579.377
  O     -240.054    -544.547     579.117
  C     -242.041    -543.095     579.633
  O     -242.831    -543.997     578.865
  C     -242.126    -543.253     581.157
  N     -245.587    -543.235     584.910
  C     -244.617    -544.175     584.621
  N     -244.565    -545.265     585.422
  N     -243.778    -544.068     583.625
  C     -243.985    -542.974     582.849
  C     -244.921    -541.978     583.036
  C     -245.814    -542.076     584.171
  O     -246.671    -541.271     584.491
  N     -244.828    -541.018     582.051
  C     -243.851    -541.444     581.275
  N     -243.301    -542.626     581.727
  O     -236.845    -539.396     580.676
  O     -236.563    -540.008     578.264
  H     -243.744    -543.938     579.191
  H     -235.762    -540.353     578.708
  H     -246.189    -543.350     585.706
  H     -243.487    -540.935     580.393
  H     -242.165    -544.303     581.452
  H     -242.335    -542.078     579.339
  H     -245.259    -545.471     586.127
  H     -240.284    -542.677     578.474
  H     -244.013    -546.044     585.069
  H     -239.017    -543.098     580.937
  H     -240.477    -540.570     580.013
  H     -239.307    -540.605     581.345
  P     -238.613    -544.978     578.575
  C     -238.792    -543.874     576.266
  O     -238.121    -543.870     577.507
  O     -238.879    -546.259     577.662
  O     -237.617    -545.298     579.643
  H     -238.405    -547.035     578.030
  H     -238.205    -543.277     575.557
  H     -239.778    -543.404     576.379
  H     -238.904    -544.886     575.877
  H     -239.388    -537.354     577.363
  H     -239.525    -539.092     577.240
  H     -238.021    -538.303     576.831

 3  4  5  6  7  8  9  10  11  12  23  26  30  31 0
 6-311+G(2d,p)
 ****
 33  35  36  37  38 0
 6-311+G(2d,p)
 ****
 1  2  13  14  15  16  17  18  19  20  21  22  24  25 0
 3-21G
 ****
 27  28  29  32  34  39  40  41  42  43  44  45  46  47  48  49 0
 3-21G
 ****


