%nproc=1
%NoSave
%Mem=1900MB
#P OB98/GEN NMR

erre ene a

0 1
  C       69.756     403.504     337.881
  O       68.686     404.194     338.498
  P       67.502     404.735     337.562
  C       67.448     407.301     337.070
  O       68.049     406.036     336.808
  C       67.878     407.799     338.448
  O       69.317     407.696     338.595
  C       67.550     409.267     338.694
  O       66.185     409.444     339.032
  C       68.507     409.612     339.827
  O       67.962     409.217     341.097
  C       69.743     408.754     339.475
  N       70.820     409.545     338.892
  C       71.410     410.494     339.730
  O       71.036     410.680     340.890
  N       72.411     411.240     339.181
  C       72.843     411.178     337.883
  O       73.707     411.917     337.427
  C       72.159     410.180     337.031
  C       71.197     409.432     337.564
  O       66.426     405.322     338.597
  O       66.902     403.709     336.667
  H       68.681     409.324     341.757
  H       65.527     405.157     338.265
  H       72.863     411.911     339.774
  H       72.476     410.111     336.001
  H       70.675     408.704     336.958
  H       70.129     408.264     340.375
  H       68.705     410.691     339.883
  H       67.809     409.863     337.808
  H       67.412     407.161     339.216
  H       66.356     407.183     337.040
  H       67.745     408.001     336.291
  P       65.527     410.870     338.706
  C       64.892     412.322     340.789
  O       65.905     411.791     339.967
  O       63.973     410.533     338.888
  O       65.897     411.390     337.359
  H       63.821     409.855     339.571
  H       64.053     411.630     340.893
  H       64.528     413.265     340.359
  H       65.307     412.531     341.771
  H       70.464     403.206     338.625
  H       70.233     404.147     337.172
  H       69.379     402.637     337.379

 3  4  5  6  7  8  9  10  11  12  13  23  28  29  30  31  32 0
 6-311+G(2d,p)
 ****
 33  34 0
 6-311+G(2d,p)
 ****
 1  2  14  15  16  17  18  19  20  21  22  24  25  26 0
 3-21G
 ****
 27  35  36  37  38  39  40  41  42  43  44  45 0
 3-21G
 ****


