%nproc=1
%NoSave
%Mem=1900MB
#P OB98/GEN NMR

erre ene a

0 1
  C      442.125     346.740    -258.036
  O      441.173     345.733    -258.319
  H      443.009     346.602    -258.665
  H      441.687     347.715    -258.258
  H      442.412     346.709    -256.983
  P      441.643     344.218    -258.075
  C      441.885     343.716    -260.601
  O      441.227     343.385    -259.389
  C      440.960     343.447    -261.790
  O      440.230     342.217    -261.516
  C      439.937     344.558    -262.058
  O      439.954     344.939    -263.444
  C      438.598     343.921    -261.750
  O      437.550     344.388    -262.596
  C      438.884     342.433    -261.956
  N      434.351     340.094    -262.168
  C      435.172     340.529    -263.139
  N      436.408     341.055    -263.022
  C      436.798     341.087    -261.737
  C      436.076     340.657    -260.631
  C      434.782     340.158    -260.878
  N      433.916     339.767    -259.881
  N      436.794     340.855    -259.466
  C      437.911     341.428    -259.850
  N      437.955     341.608    -261.212
  O      440.620     343.692    -256.953
  O      443.060     344.073    -257.633
  H      437.733     344.053    -263.495
  H      441.126     343.444    -256.157
  H      434.789     340.451    -264.148
  H      438.705     341.782    -259.198
  H      438.824     342.151    -263.016
  H      438.331     344.136    -260.704
  H      440.107     345.447    -261.436
  H      441.575     343.259    -262.678
  H      442.792     343.107    -260.704
  H      432.977     339.540    -260.142
  H      434.195     339.919    -258.920
  H      442.171     344.771    -260.576
  P      441.062     346.024    -263.871
  C      439.629     347.776    -265.142
  O      440.576     346.720    -265.240
  O      442.310     345.113    -264.322
  O      441.444     346.958    -262.771
  H      443.102     345.360    -263.802
  H      439.399     348.141    -266.121
  H      440.039     348.569    -264.553
  H      438.736     347.412    -264.678

 6  7  8  9  10  11  12  13  14  15  25  28  32  33  34  35 0
 6-311+G(2d,p)
 ****
 36  39  40 0
 6-311+G(2d,p)
 ****
 1  2  3  4  5  16  17  18  19  20  21  22  23  24 0
 3-21G
 ****
 26  27  29  30  31  37  38  41  42  43  44  45  46  47  48 0
 3-21G
 ****


