%nproc=1
%NoSave
%Mem=1900MB
#P OB98/GEN NMR

erre ene a

0 1
  C      -87.906      96.077     -37.604
  O      -86.831      95.207     -37.276
  P      -86.927      93.684     -37.779
  C      -86.521      93.051     -35.293
  O      -87.282      92.821     -36.474
  C      -87.427      93.065     -34.066
  O      -88.579      93.897     -34.307
  C      -87.980      91.704     -33.673
  O      -87.053      90.946     -32.914
  C      -89.163      92.111     -32.810
  O      -88.706      92.479     -31.496
  C      -89.690      93.345     -33.552
  N      -94.662      92.192     -33.839
  C      -93.837      92.361     -32.784
  N      -92.521      92.657     -32.790
  C      -92.057      92.737     -34.048
  C      -92.771      92.551     -35.220
  C      -94.141      92.276     -35.087
  N      -94.986      92.132     -36.164
  N      -91.953      92.712     -36.317
  C      -90.770      93.001     -35.819
  N      -90.784      93.038     -34.452
  O      -85.399      93.304     -38.069
  O      -87.797      93.466     -38.968
  H      -88.196      91.721     -31.151
  H      -85.355      92.564     -38.705
  H      -94.298      92.256     -31.806
  H      -89.883      93.198     -36.405
  H      -90.036      94.126     -32.867
  H      -89.892      91.306     -32.680
  H      -88.339      91.151     -34.550
  H      -86.862      93.505     -33.234
  H      -86.017      94.018     -35.376
  H      -95.978      92.121     -35.987
  H      -94.637      92.393     -37.079
  H      -85.763      92.267     -35.199
  P      -86.456      89.626     -33.607
  C      -87.714      88.110     -31.914
  O      -87.500      88.460     -33.268
  O      -85.183      89.285     -32.702
  O      -86.101      89.801     -35.046
  H      -84.524      88.780     -33.215
  H      -88.648      87.547     -31.842
  H      -87.795      89.000     -31.284
  H      -86.894      87.480     -31.560
  H      -87.709      97.052     -37.209
  H      -88.813      95.697     -37.183
  H      -88.004      96.137     -38.668

 3  4  5  6  7  8  9  10  11  12  22  25  29  30  31  32 0
 6-311+G(2d,p)
 ****
 33  36  37 0
 6-311+G(2d,p)
 ****
 1  2  13  14  15  16  17  18  19  20  21  23  24  26 0
 3-21G
 ****
 27  28  34  35  38  39  40  41  42  43  44  45  46  47  48 0
 3-21G
 ****


