%nproc=1
%NoSave
%Mem=1900MB
#P OB98/GEN NMR

erre ene a

0 1
  C     -504.813     -22.545    -433.051
  O     -504.760     -23.664    -433.910
  H     -504.302     -22.794    -432.112
  H     -505.851     -22.282    -432.830
  H     -504.305     -21.688    -433.513
  P     -505.463     -23.508    -435.346
  C     -507.216     -25.315    -434.711
  O     -506.220     -24.904    -435.632
  C     -507.095     -26.809    -434.427
  O     -507.236     -27.549    -435.678
  C     -505.742     -27.223    -433.808
  O     -505.963     -28.262    -432.846
  C     -504.983     -27.801    -434.989
  O     -503.949     -28.702    -434.588
  C     -506.119     -28.460    -435.768
  N     -503.454     -31.532    -438.737
  C     -503.653     -31.566    -437.367
  N     -503.051     -32.560    -436.680
  N     -504.382     -30.679    -436.720
  C     -504.950     -29.760    -437.542
  C     -504.822     -29.615    -438.906
  C     -503.988     -30.578    -439.604
  O     -503.755     -30.597    -440.804
  N     -505.523     -28.528    -439.361
  C     -506.082     -28.009    -438.276
  N     -505.764     -28.728    -437.146
  O     -504.226     -23.534    -436.365
  O     -506.312     -22.290    -435.521
  H     -504.336     -29.356    -433.971
  H     -504.426     -23.003    -437.164
  H     -502.871     -32.223    -439.173
  H     -506.704     -27.129    -438.242
  H     -506.429     -29.419    -435.327
  H     -504.519     -26.990    -435.572
  H     -502.506     -33.280    -437.105
  H     -505.205     -26.395    -433.335
  H     -503.197     -32.603    -435.675
  H     -507.928     -27.127    -433.783
  H     -508.205     -25.108    -435.134
  H     -507.100     -24.755    -433.776
  P     -506.183     -27.822    -431.315
  C     -504.025     -28.898    -430.321
  O     -505.459     -28.897    -430.362
  O     -507.736     -28.107    -431.077
  O     -505.845     -26.383    -431.043
  H     -508.223     -27.267    -431.021
  H     -503.688     -29.660    -429.650
  H     -503.677     -27.945    -429.981
  H     -503.640     -29.090    -431.301

 6  7  8  9  10  11  12  13  14  15  26  29  33  34 0
 6-311+G(2d,p)
 ****
 36  38  39  40  41 0
 6-311+G(2d,p)
 ****
 1  2  3  4  5  16  17  18  19  20  21  22  23  24  25 0
 3-21G
 ****
 27  28  30  31  32  35  37  42  43  44  45  46  47 0
 3-21G
 ****
 48  49 0
 3-21G
 ****


