%nproc=1
%NoSave
%Mem=1900MB
#P OB98/GEN NMR

erre ene a

0 1
  C     -196.114     123.213     -17.247
  O     -197.077     122.860     -16.276
  H     -195.391     122.398     -17.332
  H     -195.585     124.121     -16.950
  H     -196.590     123.359     -18.221
  P     -198.223     123.918     -15.909
  C     -196.741     125.365     -14.369
  O     -197.868     124.499     -14.455
  C     -196.158     125.334     -12.951
  O     -197.082     126.033     -12.080
  C     -195.983     123.904     -12.420
  O     -194.665     123.643     -11.941
  C     -197.135     123.753     -11.434
  O     -196.910     122.813     -10.404
  C     -197.367     125.189     -10.949
  N     -198.718     125.434     -10.450
  C     -198.846     125.816      -9.118
  O     -197.913     125.986      -8.337
  N     -200.131     126.019      -8.683
  C     -201.263     125.874      -9.424
  O     -202.388     126.076      -8.981
  C     -201.065     125.447     -10.817
  C     -199.820     125.248     -11.259
  O     -199.624     123.432     -16.061
  O     -197.926     125.161     -16.874
  H     -197.723     122.767      -9.860
  H     -198.554     125.153     -17.619
  H     -200.235     126.306      -7.723
  H     -201.943     125.312     -11.433
  H     -199.637     124.935     -12.283
  H     -196.668     125.442     -10.152
  H     -198.019     123.416     -11.988
  H     -196.108     123.170     -13.225
  H     -195.214     125.888     -12.945
  H     -197.074     126.377     -14.620
  H     -195.978     125.051     -15.090
  P     -193.449     123.156     -12.851
  C     -192.957     121.043     -11.379
  O     -192.483     122.252     -11.951
  O     -192.804     124.210     -13.685
  O     -194.137     122.095     -13.853
  H     -193.652     122.157     -14.701
  H     -192.172     120.583     -10.816
  H     -193.273     120.380     -12.157
  H     -193.783     121.254     -10.732

 6  7  8  9  10  11  12  13  14  15  16  26  31  32  33  34  35 0
 6-311+G(2d,p)
 ****
 36  37 0
 6-311+G(2d,p)
 ****
 1  2  3  4  5  17  18  19  20  21  22  23  24  25 0
 3-21G
 ****
 27  28  29  30  38  39  40  41  42  43  44  45 0
 3-21G
 ****


