%nproc=1
%NoSave
%Mem=1900MB
#P OB98/GEN NMR

erre ene a

0 1
  C      856.234    -362.490     295.830
  O      855.477    -361.984     296.935
  P      854.416    -362.941     297.666
  C      854.285    -362.008     300.107
  O      853.684    -362.111     298.829
  C      853.640    -360.872     300.911
  O      853.934    -359.597     300.297
  C      852.123    -360.931     300.982
  O      851.677    -361.911     301.917
  C      851.781    -359.513     301.394
  O      851.907    -359.334     302.806
  C      852.855    -358.705     300.632
  N      852.327    -358.024     299.453
  C      852.125    -356.654     299.560
  O      852.312    -356.019     300.604
  N      851.660    -356.028     298.430
  C      851.314    -356.638     297.255
  O      850.880    -356.029     296.288
  C      851.477    -358.099     297.230
  C      851.955    -358.716     298.313
  O      855.371    -363.913     298.508
  O      853.526    -363.729     296.758
  H      851.305    -359.991     303.228
  H      854.933    -364.782     298.635
  H      851.529    -355.031     298.479
  H      851.196    -358.632     296.332
  H      852.086    -359.799     298.315
  H      853.290    -357.942     301.302
  H      850.756    -359.233     301.131
  H      851.706    -361.132     299.986
  H      854.083    -360.880     301.925
  H      855.354    -361.804     299.991
  H      854.165    -362.966     300.635
  P      850.622    -363.002     301.370
  C      851.230    -364.900     303.070
  O      850.297    -363.927     302.634
  O      851.561    -363.888     300.431
  O      849.450    -362.391     300.673
  H      852.478    -363.952     300.779
  H      852.253    -364.569     302.917
  H      851.045    -365.836     302.530
  H      851.068    -365.075     304.146
  H      856.888    -361.725     295.466
  H      855.567    -362.791     295.049
  H      856.813    -363.331     296.150

 3  4  5  6  7  8  9  10  11  12  13  23  28  29  30  31  32 0
 6-311+G(2d,p)
 ****
 33  34 0
 6-311+G(2d,p)
 ****
 1  2  14  15  16  17  18  19  20  21  22  24  25  26 0
 3-21G
 ****
 27  35  36  37  38  39  40  41  42  43  44  45 0
 3-21G
 ****


