%nproc=1
%NoSave
%Mem=1900MB
#P OB98/GEN NMR

erre ene a

0 1
  C        0.707      36.825     261.292
  O        0.155      36.297     260.101
  H        1.292      36.044     261.784
  H       -0.090      37.147     261.967
  H        1.365      37.669     261.063
  P       -0.766      37.292     259.240
  C       -2.870      35.847     259.701
  O       -2.258      37.124     259.811
  C       -4.191      35.822     260.468
  O       -3.980      36.167     261.857
  C       -5.247      36.784     259.936
  O       -5.941      36.227     258.833
  C       -6.135      36.958     261.163
  O       -7.055      35.859     261.310
  C       -5.106      36.967     262.304
  N       -6.546      41.409     264.223
  C       -7.266      40.243     264.034
  N       -8.576      40.289     264.362
  N       -6.748      39.142     263.562
  C       -5.434      39.258     263.252
  C       -4.612      40.351     263.408
  C       -5.190      41.555     263.962
  O       -4.594      42.601     264.215
  N       -3.334      40.074     262.996
  C       -3.392      38.831     262.554
  N       -4.651      38.298     262.675
  O       -0.843      36.579     257.805
  O       -0.270      38.691     259.132
  H       -7.716      36.084     261.987
  H       -0.933      37.264     257.116
  H       -6.998      42.223     264.608
  H       -2.560      38.277     262.146
  H       -5.497      36.501     263.214
  H       -6.740      37.865     261.096
  H       -9.082      41.163     264.399
  H       -4.796      37.748     259.672
  H       -9.112      39.446     264.203
  H       -4.568      34.789     260.443
  H       -2.198      35.091     260.117
  H       -3.050      35.623     258.643
  P       -6.772      37.225     257.890
  C       -9.006      35.920     258.151
  O       -8.301      37.134     258.368
  O       -6.785      36.476     256.475
  O       -6.204      38.601     257.792
  H       -7.020      37.102     255.769
  H      -10.005      36.017     258.522
  H       -8.510      35.123     258.665
  H       -9.033      35.706     257.103

 6  7  8  9  10  11  12  13  14  15  26  29  33  34 0
 6-311+G(2d,p)
 ****
 36  38  39  40  41 0
 6-311+G(2d,p)
 ****
 1  2  3  4  5  16  17  18  19  20  21  22  23  24  25 0
 3-21G
 ****
 27  28  30  31  32  35  37  42  43  44  45  46  47 0
 3-21G
 ****
 48  49 0
 3-21G
 ****


