%nproc=1
%NoSave
%Mem=1900MB
#P OB98/GEN NMR

erre ene a

0 1
  C       26.785      10.588      37.590
  O       26.818       9.228      37.141
  P       27.897       8.685      36.087
  C       28.520       9.215      33.640
  O       27.480       9.153      34.613
  C       28.090       8.582      32.313
  O       28.145       7.145      32.395
  C       26.667       8.909      31.879
  O       26.579      10.225      31.364
  C       26.410       7.804      30.860
  O       26.965       8.143      29.578
  C       27.164       6.612      31.485
  N       26.270       5.674      32.150
  C       25.444       4.905      31.326
  O       25.449       5.073      30.105
  N       24.613       3.978      31.908
  C       24.558       3.884      33.200
  N       23.723       2.944      33.720
  C       25.344       4.739      34.108
  C       26.172       5.601      33.520
  O       28.176       7.221      36.203
  O       29.227       9.529      36.382
  H       26.816       7.371      28.999
  H       30.006       8.980      36.174
  H       25.249       4.648      35.179
  H       26.794       6.261      34.113
  H       27.728       6.071      30.715
  H       25.344       7.613      30.708
  H       25.984       8.786      32.728
  H       28.807       8.900      31.544
  H       23.203       2.369      33.069
  H       29.389       8.675      34.033
  H       23.607       2.787      34.710
  H       28.798      10.263      33.488
  P       25.755      11.340      32.164
  C       23.252      11.592      32.673
  O       24.224      11.229      31.710
  O       26.330      12.716      32.132
  O       25.716      10.774      33.665
  H       25.704      11.526      34.285
  H       22.328      11.862      32.155
  H       23.588      12.445      33.270
  H       23.057      10.741      33.330
  H       25.983      10.714      38.287
  H       26.635      11.237      36.752
  H       27.713      10.829      38.066

 3  4  5  6  7  8  9  10  11  12  13  23  27  28  29  30  32 0
 6-311+G(2d,p)
 ****
 34  35 0
 6-311+G(2d,p)
 ****
 1  2  14  15  16  17  18  19  20  21  22  24  25  26 0
 3-21G
 ****
 31  33  36  37  38  39  40  41  42  43  44  45  46 0
 3-21G
 ****


