%nproc=1
%NoSave
%Mem=1900MB
#P OB98/GEN NMR

erre ene a

0 1
  C       -3.742     215.052      75.051
  O       -4.894     215.369      75.803
  P       -5.933     216.505      75.376
  C       -4.849     218.256      76.961
  O       -5.248     217.936      75.632
  C       -5.076     219.734      77.314
  O       -4.329     220.565      76.400
  C       -6.551     220.103      77.127
  O       -7.486     219.832      78.150
  C       -6.538     221.544      76.631
  O       -6.779     222.486      77.679
  C       -5.126     221.714      76.069
  N       -3.528     224.693      72.291
  C       -3.121     224.669      73.611
  N       -2.331     225.693      74.004
  N       -3.479     223.742      74.463
  C       -4.348     222.841      73.945
  C       -4.808     222.754      72.652
  C       -4.375     223.759      71.713
  O       -4.778     223.863      70.556
  N       -5.735     221.753      72.508
  C       -5.865     221.257      73.720
  N       -5.073     221.912      74.635
  O       -7.354     216.307      75.795
  O       -5.885     216.389      73.766
  H       -6.769     223.377      77.285
  H       -6.780     216.591      73.432
  H       -3.283     225.478      71.701
  H       -6.539     220.455      73.997
  H       -4.629     222.580      76.529
  H       -7.327     221.703      75.887
  H       -2.160     226.496      73.419
  H       -6.915     219.515      76.273
  H       -2.157     225.800      74.998
  H       -4.687     219.964      78.310
  H       -3.792     217.993      77.058
  H       -5.403     217.632      77.666
  P       -8.923     219.154      77.968
  C      -10.121     221.389      78.309
  O       -9.947     220.272      77.456
  O       -9.422     218.875      79.465
  O       -8.925     217.889      77.175
  H      -10.095     218.169      79.460
  H      -11.036     221.916      78.026
  H       -9.270     222.069      78.196
  H      -10.198     221.075      79.354
  H       -3.206     214.263      75.535
  H       -3.115     215.916      74.977
  H       -4.032     214.737      74.070

 3  4  5  6  7  8  9  10  11  12  23  26  30  31 0
 6-311+G(2d,p)
 ****
 33  35  36  37  38 0
 6-311+G(2d,p)
 ****
 1  2  13  14  15  16  17  18  19  20  21  22  24  25 0
 3-21G
 ****
 27  28  29  32  34  39  40  41  42  43  44  45  46  47  48  49 0
 3-21G
 ****


