%nproc=1
%NoSave
%Mem=1900MB
#P OB98/GEN NMR

erre ene a

0 1
  C     -147.395      81.743     -85.106
  O     -147.220      82.138     -83.760
  H     -147.886      80.768     -85.122
  H     -146.425      81.656     -85.605
  H     -148.024      82.459     -85.642
  P     -146.640      83.600     -83.451
  C     -144.304      84.647     -83.158
  O     -145.042      83.494     -83.541
  C     -142.924      84.237     -82.650
  O     -143.047      83.433     -81.455
  C     -142.127      83.391     -83.638
  O     -141.604      84.191     -84.680
  C     -141.091      82.777     -82.708
  O     -140.036      83.709     -82.424
  C     -141.935      82.510     -81.437
  N     -142.401      81.123     -81.346
  C     -141.716      80.305     -80.453
  O     -140.766      80.694     -79.774
  N     -142.132      79.001     -80.402
  C     -143.080      78.436     -81.205
  O     -143.267      77.224     -81.276
  C     -143.820      79.363     -82.071
  C     -143.445      80.643     -82.112
  O     -147.161      84.255     -82.217
  O     -147.016      84.438     -84.764
  H     -147.804      84.983     -84.583
  H     -140.382      84.320     -81.748
  H     -141.610      78.387     -79.794
  H     -144.624      78.963     -82.677
  H     -143.956      81.340     -82.769
  H     -141.351      82.734     -80.536
  H     -140.627      81.885     -83.134
  H     -142.759      82.588     -84.042
  H     -142.370      85.148     -82.385
  H     -144.847      85.160     -82.358
  H     -144.217      85.319     -84.018
  P     -141.393      83.598     -86.151
  C     -139.408      82.571     -87.408
  O     -140.047      82.727     -86.149
  O     -141.480      84.599     -87.255
  O     -142.540      82.487     -86.298
  H     -143.053      82.662     -87.111
  H     -138.526      81.976     -87.289
  H     -139.141      83.533     -87.794
  H     -140.076      82.087     -88.089

 6  7  8  9  10  11  12  13  14  15  16  27  31  32  33  34  35 0
 6-311+G(2d,p)
 ****
 36  37 0
 6-311+G(2d,p)
 ****
 1  2  3  4  5  17  18  19  20  21  22  23  24  25 0
 3-21G
 ****
 26  28  29  30  38  39  40  41  42  43  44  45 0
 3-21G
 ****


