%nproc=1
%NoSave
%Mem=1900MB
#P OB98/GEN NMR

erre ene a

0 1
  C     -424.645     -53.319     534.970
  O     -424.398     -53.532     533.564
  P     -423.629     -54.814     533.007
  C     -424.002     -56.418     531.004
  O     -424.053     -55.063     531.477
  C     -424.609     -56.557     529.609
  O     -426.057     -56.663     529.683
  C     -424.350     -55.365     528.689
  O     -423.013     -55.401     528.183
  C     -425.434     -55.577     527.631
  O     -425.011     -56.548     526.640
  C     -426.594     -56.121     528.474
  N     -427.615     -55.100     528.742
  C     -428.672     -55.007     527.842
  O     -428.690     -55.738     526.830
  N     -429.669     -54.090     528.074
  C     -429.566     -53.281     529.083
  N     -430.585     -52.395     529.288
  C     -428.414     -53.277     530.013
  C     -427.494     -54.199     529.786
  O     -423.749     -56.032     533.871
  O     -422.089     -54.357     532.887
  H     -424.094     -56.305     526.386
  H     -421.520     -55.138     533.025
  H     -428.360     -52.565     530.820
  H     -426.612     -54.273     530.420
  H     -427.089     -56.960     527.958
  H     -425.677     -54.654     527.078
  H     -424.535     -54.420     529.220
  H     -424.230     -57.484     529.154
  H     -431.367     -52.428     528.627
  H     -424.589     -57.041     531.715
  H     -430.607     -51.713     530.035
  H     -422.967     -56.752     531.011
  P     -422.036     -54.162     528.485
  C     -419.768     -53.349     527.580
  O     -420.885     -54.182     527.362
  O     -421.549     -54.044     529.886
  O     -422.897     -52.878     528.061
  H     -422.646     -52.122     528.625
  H     -418.909     -53.722     527.022
  H     -419.506     -53.303     528.657
  H     -419.998     -52.318     527.246
  H     -425.173     -52.398     535.104
  H     -423.713     -53.275     535.493
  H     -425.232     -54.126     535.355

 3  4  5  6  7  8  9  10  11  12  13  23  27  28  29  30  32 0
 6-311+G(2d,p)
 ****
 34  35 0
 6-311+G(2d,p)
 ****
 1  2  14  15  16  17  18  19  20  21  22  24  25  26 0
 3-21G
 ****
 31  33  36  37  38  39  40  41  42  43  44  45  46 0
 3-21G
 ****


