%nproc=1
%NoSave
%Mem=1900MB
#P OB98/GEN NMR

erre ene a

0 1
  C      220.768     125.617      36.040
  O      220.258     124.748      37.033
  H      221.716     125.211      35.674
  H      220.949     126.614      36.450
  H      220.071     125.681      35.201
  P      219.006     125.251      37.905
  C      217.105     124.044      36.639
  O      217.761     125.287      36.890
  C      216.163     123.681      37.790
  O      216.922     123.368      38.975
  C      215.231     124.811      38.200
  O      214.242     125.122      37.241
  C      214.818     124.401      39.604
  O      213.704     123.513      39.630
  C      216.084     123.667      40.110
  N      216.793     124.436      41.124
  C      216.531     124.088      42.445
  O      215.734     123.206      42.769
  N      217.185     124.823      43.396
  C      218.017     125.878      43.158
  O      218.539     126.523      44.059
  C      218.237     126.214      41.742
  C      217.627     125.489      40.804
  O      219.212     126.531      38.657
  O      218.671     124.001      38.844
  H      212.972     123.959      39.161
  H      218.102     124.269      39.605
  H      217.013     124.578      44.358
  H      218.889     127.049      41.517
  H      217.771     125.721      39.751
  H      215.809     122.702      40.554
  H      214.549     125.269      40.210
  H      215.834     125.722      38.312
  H      215.598     122.787      37.501
  H      217.877     123.272      36.549
  H      216.555     124.100      35.695
  P      213.382     126.469      37.272
  C      215.439     127.684      36.250
  O      214.398     127.714      37.223
  O      212.238     126.515      38.236
  O      212.759     126.479      35.784
  H      211.867     126.877      35.842
  H      216.032     128.571      36.335
  H      215.011     127.633      35.271
  H      216.056     126.825      36.414

 6  7  8  9  10  11  12  13  14  15  16  26  31  32  33  34  35 0
 6-311+G(2d,p)
 ****
 36  37 0
 6-311+G(2d,p)
 ****
 1  2  3  4  5  17  18  19  20  21  22  23  24  25 0
 3-21G
 ****
 27  28  29  30  38  39  40  41  42  43  44  45 0
 3-21G
 ****


