%nproc=1
%NoSave
%Mem=1900MB
#P OB98/GEN NMR

erre ene a

0 1
  C       38.362     298.953    -895.870
  O       37.111     298.682    -895.220
  P       37.085     297.724    -893.920
  C       35.244     296.211    -894.900
  O       36.588     296.273    -894.350
  C       35.029     294.868    -895.520
  O       35.843     294.660    -896.710
  C       35.312     293.672    -894.620
  O       34.287     293.501    -893.650
  C       35.445     292.545    -895.620
  O       34.152     292.027    -895.980
  C       36.112     293.254    -896.840
  N       39.770     290.664    -899.260
  C       38.418     290.544    -899.270
  N       37.519     291.265    -898.600
  C       38.140     292.143    -897.750
  C       39.495     292.328    -897.570
  C       40.355     291.561    -898.410
  N       41.712     291.682    -898.410
  N       39.754     293.268    -896.630
  C       38.548     293.654    -896.190
  N       37.545     293.026    -896.930
  O       36.417     298.308    -892.710
  O       38.676     297.500    -893.600
  H       34.292     291.435    -896.760
  H       38.880     297.847    -892.700
  H       38.027     289.854    -900.000
  H       38.353     294.367    -895.410
  H       35.641     292.941    -897.790
  H       36.053     291.687    -895.250
  H       36.292     293.838    -894.110
  H       33.958     294.806    -895.850
  H       35.161     297.023    -895.660
  H       42.209     291.227    -899.150
  H       42.136     292.557    -898.020
  H       34.533     296.416    -894.100
  P       34.448     292.384    -892.500
  C       32.273     291.092    -893.000
  O       33.689     291.081    -893.020
  O       34.109     292.814    -891.090
  O       36.022     291.964    -892.610
  H       36.377     291.706    -891.720
  H       31.919     290.976    -891.970
  H       31.863     290.339    -893.620
  H       31.902     292.089    -893.360
  H       38.197     299.600    -896.706
  H       38.794     298.035    -896.209
  H       39.028     299.426    -895.179

 3  4  5  6  7  8  9  10  11  12  22  25  29  30  31  32 0
 6-311+G(2d,p)
 ****
 33  36  37 0
 6-311+G(2d,p)
 ****
 1  2  13  14  15  16  17  18  19  20  21  23  24  26 0
 3-21G
 ****
 27  28  34  35  38  39  40  41  42  43  44  45  46  47  48 0
 3-21G
 ****


