%nproc=1
%NoSave
%Mem=1900MB
#P OB98/GEN NMR

erre ene a

0 1
  C      482.121      75.010    -339.715
  O      481.991      73.827    -338.941
  H      481.390      75.740    -339.360
  H      481.924      74.790    -340.766
  H      483.128      75.424    -339.597
  P      482.994      72.630    -339.296
  C      484.788      72.930    -337.427
  O      484.443      73.098    -338.798
  C      486.281      72.599    -337.287
  O      487.058      73.732    -337.774
  C      486.724      72.348    -335.841
  O      487.844      71.440    -335.874
  C      487.204      73.724    -335.416
  O      487.957      73.655    -334.226
  C      487.923      74.147    -336.693
  N      491.178      77.696    -338.394
  C      491.157      76.358    -338.549
  N      490.247      75.478    -338.076
  C      489.273      76.116    -337.400
  C      489.158      77.478    -337.173
  C      490.181      78.288    -337.705
  N      490.214      79.661    -337.546
  N      488.030      77.759    -336.429
  C      487.468      76.576    -336.216
  N      488.193      75.561    -336.784
  O      483.101      72.696    -340.892
  O      482.574      71.280    -338.819
  H      487.425      73.266    -333.502
  H      482.470      72.074    -341.295
  H      491.975      75.931    -339.127
  H      486.552      76.414    -335.661
  H      488.874      73.621    -336.812
  H      486.355      74.387    -335.211
  H      485.938      71.923    -335.205
  H      486.517      71.749    -337.937
  H      484.187      72.109    -337.015
  H      484.561      73.853    -336.881
  H      490.988      80.166    -337.949
  H      489.477      80.107    -337.015
  P      487.894      70.219    -334.827
  C      487.436      68.209    -336.443
  O      486.974      69.028    -335.382
  O      487.017      70.789    -333.612
  O      489.258      69.823    -334.355
  H      487.313      70.378    -332.777
  H      486.693      67.475    -336.676
  H      488.341      67.720    -336.148
  H      487.622      68.814    -337.306

 6  7  8  9  10  11  12  13  14  15  25  28  32  33  34  35 0
 6-311+G(2d,p)
 ****
 36  37  40 0
 6-311+G(2d,p)
 ****
 1  2  3  4  5  16  17  18  19  20  21  22  23  24 0
 3-21G
 ****
 26  27  29  30  31  38  39 41  42  43  44  45  46  47  48 0
 3-21G
 ****


