%nproc=1
%NoSave
%Mem=1900MB
#P OB98/GEN NMR

erre ene a

0 1
  C     -944.525    -578.802     139.509
  O     -945.473    -579.616     138.811
  P     -944.915    -580.888     137.998
  C     -945.189    -582.588     139.966
  O     -944.301    -581.891     139.093
  C     -945.163    -584.098     139.643
  O     -943.856    -584.619     139.928
  C     -946.137    -584.914     140.485
  O     -947.461    -584.810     140.000
  C     -945.552    -586.308     140.371
  O     -945.966    -586.950     139.169
  C     -944.027    -586.018     140.331
  N     -943.350    -586.306     141.603
  C     -942.940    -587.604     141.788
  O     -943.133    -588.487     140.976
  N     -942.321    -587.863     142.982
  C     -942.141    -586.976     144.014
  O     -941.625    -587.303     145.081
  C     -942.628    -585.607     143.775
  C     -943.217    -585.335     142.600
  O     -943.611    -580.331     137.255
  O     -945.886    -581.485     137.058
  H     -945.559    -587.852     139.193
  H     -943.519    -580.766     136.383
  H     -941.991    -588.807     143.130
  H     -942.498    -584.883     144.554
  H     -943.581    -584.344     142.383
  H     -943.567    -586.621     139.545
  H     -945.843    -586.959     141.206
  H     -946.077    -584.580     141.550
  H     -945.384    -584.213     138.581
  H     -946.201    -582.217     139.830
  H     -944.912    -582.406     141.010
  P     -948.661    -585.133     141.032
  C     -948.758    -582.575     141.592
  O     -948.656    -583.894     142.064
  O     -948.009    -586.366     141.840
  O     -949.955    -585.435     140.355
  H     -947.045    -586.275     141.934
  H     -949.407    -582.514     140.700
  H     -947.749    -582.206     141.322
  H     -949.193    -581.967     142.382
  H     -945.036    -578.000     140.000
  H     -943.818    -578.401     138.813
  H     -944.012    -579.396     140.236

 3  4  5  6  7  8  9  10  11  12  13  23  28  29  30  31  32 0
 6-311+G(2d,p)
 ****
 33  34 0
 6-311+G(2d,p)
 ****
 1  2  14  15  16  17  18  19  20  21  22  24  25  26 0
 3-21G
 ****
 27  35  36  37  38  39  40  41  42  43  44  45 0
 3-21G
 ****


