%nproc=1
%NoSave
%Mem=1900MB
#P OB98/GEN NMR

erre ene a

0 1
  C        9.635      -2.800      58.726
  O       10.071      -4.095      59.087
  H        8.797      -2.865      58.028
  H        9.302      -2.276      59.627
  H       10.455      -2.238      58.272
  P       10.570      -5.047      57.895
  C        8.251      -6.147      57.466
  O        9.584      -6.314      57.929
  C        7.310      -6.978      58.329
  O        5.939      -6.757      57.925
  C        7.537      -8.481      58.216
  O        8.600      -8.934      59.036
  C        6.200      -9.008      58.706
  O        6.136      -8.913      60.140
  C        5.221      -8.013      58.062
  N        1.802     -10.892      55.567
  C        1.980     -10.640      56.882
  N        2.901      -9.845      57.464
  C        3.685      -9.269      56.539
  C        3.618      -9.425      55.164
  C        2.622     -10.288      54.677
  N        2.457     -10.573      53.340
  N        4.608      -8.688      54.544
  C        5.245      -8.085      55.527
  N        4.745      -8.431      56.754
  O       11.948      -5.651      58.441
  O       10.703      -4.403      56.557
  H        5.291      -9.318      60.415
  H       12.449      -6.066      57.714
  H        1.295     -11.147      57.555
  H        6.076      -7.403      55.404
  H        4.339      -7.827      58.684
  H        6.037     -10.056      58.445
  H        7.681      -8.788      57.174
  H        7.408      -6.642      59.369
  H        8.190      -6.483      56.425
  H        1.817     -11.314      53.103
  H        3.152     -10.246      52.685
  H        7.977      -5.089      57.519
  P        9.275     -10.344      58.662
  C        7.916     -11.389      60.613
  O        9.183     -11.254      59.981
  O       10.830      -9.982      58.572
  O        8.763     -10.965      57.405
  H       11.279     -10.539      57.908
  H        8.011     -12.020      61.472
  H        7.220     -11.824      59.927
  H        7.564     -10.425      60.916

 6  7  8  9  10  11  12  13  14  15  25  28  32  33  34  35 0
 6-311+G(2d,p)
 ****
 36  39  40 0
 6-311+G(2d,p)
 ****
 1  2  3  4  5  16  17  18  19  20  21  22  23  24 0
 3-21G
 ****
 26  27  29  30  31  37  38  41  42  43  44  45  46  47 0
 3-21G
 ****
 48 0
 3-21G
 ****


