%nproc=1
%NoSave
%Mem=1900MB
#P OB98/GEN NMR

erre ene a

0 1
  C      250.098      87.012    -222.528
  O      250.111      85.701    -223.066
  P      250.377      85.554    -224.643
  C      248.803      83.489    -224.472
  O      249.176      84.653    -225.206
  C      247.477      82.939    -224.992
  O      246.383      83.719    -224.473
  C      247.335      82.986    -226.502
  O      248.069      81.936    -227.103
  C      245.827      82.859    -226.669
  O      245.421      81.480    -226.686
  C      245.287      83.574    -225.408
  N      244.677      84.858    -225.709
  C      243.395      84.803    -226.275
  O      242.865      83.712    -226.498
  N      242.768      85.980    -226.603
  C      243.371      87.110    -226.392
  N      242.701      88.246    -226.731
  C      244.727      87.209    -225.819
  C      245.321      86.057    -225.512
  O      251.643      84.578    -224.709
  O      250.614      86.844    -225.358
  H      245.800      81.102    -227.505
  H      252.151      84.726    -225.530
  H      245.186      88.177    -225.666
  H      246.317      86.038    -225.089
  H      244.538      82.951    -224.905
  H      245.481      83.303    -227.605
  H      247.670      83.955    -226.892
  H      247.365      81.911    -224.623
  H      241.774      88.143    -227.128
  H      248.691      83.751    -223.417
  H      243.073      89.171    -226.587
  H      249.597      82.742    -224.566
  P      248.973      82.293    -228.377
  C      248.935      79.788    -228.928
  O      248.711      81.096    -229.413
  O      250.449      81.964    -227.848
  O      248.867      83.678    -228.922
  H      251.108      82.236    -228.512
  H      248.574      79.072    -229.670
  H      248.393      79.628    -227.991
  H      250.005      79.624    -228.773
  H      249.911      86.964    -221.475
  H      249.327      87.584    -223.001
  H      251.045      87.478    -222.701

 3  4  5  6  7  8  9  10  11  12  13  21  23  27  28  29  30  32 0
 6-311+G(2d,p)
 ****
 34  35 0
 6-311+G(2d,p)
 ****
 1  2  14  15  16  17  18  19  20  22  24  25  26 0
 3-21G
 ****
 31  33  36  37  38  39  40  41  42  43  44  45  46 0
 3-21G
 ****


