%nproc=1
%NoSave
%Mem=1900MB
#P OB98/GEN NMR

erre ene a

0 1
  C     -809.193    -833.131     663.795
  O     -809.458    -834.485     664.081
  H     -810.127    -832.647     663.507
  H     -808.491    -833.047     662.964
  H     -808.792    -832.623     664.677
  P     -808.234    -835.428     664.530
  C     -808.319    -835.219     667.117
  O     -808.677    -835.996     665.974
  C     -809.533    -835.012     668.008
  O     -810.450    -834.044     667.437
  C     -810.400    -836.251     668.232
  O     -809.809    -837.203     669.103
  C     -811.639    -835.616     668.817
  O     -811.394    -835.248     670.195
  C     -811.779    -834.358     667.918
  N     -812.706    -834.575     666.796
  C     -814.049    -834.765     667.121
  O     -814.421    -834.766     668.290
  N     -814.947    -834.993     666.093
  C     -814.526    -835.061     664.869
  N     -815.462    -835.282     663.908
  C     -813.116    -834.870     664.488
  C     -812.263    -834.633     665.482
  O     -806.873    -834.808     664.470
  O     -808.379    -836.736     663.619
  H     -812.219    -834.861     670.531
  H     -807.638    -837.352     663.850
  H     -812.815    -834.960     663.456
  H     -811.207    -834.497     665.289
  H     -812.136    -833.506     668.500
  H     -812.510    -836.274     668.809
  H     -810.664    -836.714     667.270
  H     -809.186    -834.590     668.958
  H     -816.416    -835.403     664.197
  H     -807.909    -834.263     666.775
  H     -815.210    -835.422     662.923
  H     -807.554    -835.750     667.695
  P     -810.162    -838.749     668.832
  C     -807.990    -839.003     667.396
  O     -808.777    -839.482     668.477
  O     -810.946    -838.713     667.431
  O     -810.961    -839.427     669.906
  H     -811.916    -838.734     667.570
  H     -807.109    -839.604     667.302
  H     -807.711    -837.987     667.581
  H     -808.557    -839.058     666.490

 6  7  8  9  10  11  12  13  14  15  16  26  30  31  32  33  35 0
 6-311+G(2d,p)
 ****
 37  38 0
 6-311+G(2d,p)
 ****
 1  2  3  4  5  17  18  19  20  21  22  23  24  25 0
 3-21G
 ****
 27  28  29  34  36  39  40  41  42  43  44  45  46 0
 3-21G
 ****


