%nproc=1
%NoSave
%Mem=1900MB
#P OB98/GEN NMR

erre ene a

0 1
  C      -57.569     -21.101      28.834
  O      -58.743     -21.103      28.044
  H      -56.902     -20.318      28.466
  H      -57.061     -22.065      28.753
  H      -57.818     -20.894      29.877
  P      -59.870     -22.174      28.442
  C      -60.418     -20.946      30.654
  O      -59.912     -22.126      30.045
  C      -61.351     -21.299      31.809
  O      -62.497     -22.024      31.331
  C      -60.719     -22.182      32.878
  O      -59.932     -21.411      33.770
  C      -61.961     -22.737      33.558
  O      -62.495     -21.757      34.471
  C      -62.930     -22.933      32.377
  N      -65.973     -26.913      31.261
  C      -66.202     -25.772      31.945
  N      -65.336     -24.780      32.240
  C      -64.116     -25.050      31.748
  C      -63.733     -26.172      31.030
  C      -64.728     -27.131      30.778
  N      -64.491     -28.289      30.070
  N      -62.398     -26.103      30.692
  C      -61.997     -24.936      31.152
  N      -62.990     -24.276      31.831
  O      -59.730     -23.521      27.823
  O      -61.201     -21.377      28.043
  H      -61.740     -21.333      34.920
  H      -61.114     -20.434      28.265
  H      -67.219     -25.637      32.304
  H      -61.008     -24.516      31.007
  H      -63.957     -22.661      32.646
  H      -61.750     -23.634      34.142
  H      -60.155     -23.008      32.434
  H      -61.717     -20.360      32.243
  H      -60.951     -20.335      29.918
  H      -65.209     -28.996      30.083
  H      -63.538     -28.506      29.821
  H      -59.561     -20.373      31.022
  P      -58.742     -22.088      34.604
  C      -56.583     -21.510      33.335
  O      -57.604     -22.478      33.540
  O      -59.155     -23.200      35.504
  O      -58.081     -20.881      35.414
  H      -57.816     -21.176      36.306
  H      -55.885     -21.875      32.611
  H      -56.075     -21.326      34.259
  H      -57.020     -20.600      32.981

 6  7  8  9  10  11  12  13  14  15  25  28  32  33  34  35 0
 6-311+G(2d,p)
 ****
 36  39  40 0
 6-311+G(2d,p)
 ****
 1  2  3  4  5  16  17  18  19  20  21  22  23  24 0
 3-21G
 ****
 26  27  29  30  31  37  38  41  42  43  44  45  46  47 0
 3-21G
 ****
 48 0
 3-21G
 ****


