%nproc=1
%NoSave
%Mem=1900MB
#P OB98/GEN NMR

erre ene a

0 1
  C     -904.214    -967.679     465.027
  O     -905.297    -968.337     465.676
  P     -906.511    -968.987     464.839
  C     -908.883    -968.545     465.721
  O     -907.657    -969.237     465.901
  C     -909.752    -968.679     466.973
  O     -910.120    -970.068     467.145
  C     -909.095    -968.226     468.266
  O     -909.060    -966.810     468.353
  C     -909.964    -968.945     469.291
  O     -911.187    -968.235     469.517
  C     -910.284    -970.289     468.590
  N     -909.438    -971.381     469.022
  C     -909.509    -971.737     470.364
  O     -910.314    -971.156     471.152
  N     -908.759    -972.780     470.846
  C     -907.936    -973.398     470.075
  N     -907.232    -974.462     470.555
  C     -907.753    -972.998     468.635
  C     -908.518    -972.017     468.196
  O     -906.128    -970.177     464.026
  O     -907.079    -967.772     463.990
  H     -911.624    -968.639     470.278
  H     -906.622    -967.662     463.108
  H     -907.038    -973.564     468.020
  H     -908.483    -971.703     467.160
  H     -911.332    -970.572     468.744
  H     -909.466    -969.073     470.261
  H     -908.059    -968.636     468.306
  H     -910.713    -968.115     466.796
  H     -907.534    -974.782     471.468
  H     -909.411    -969.005     464.850
  H     -906.842    -975.152     469.938
  H     -908.692    -967.498     465.486
  P     -907.761    -966.158     469.003
  C     -909.256    -964.439     470.256
  O     -908.165    -964.639     469.365
  O     -906.755    -965.989     467.736
  O     -907.127    -966.950     470.111
  H     -906.092    -966.716     467.746
  H     -909.262    -963.398     470.599
  H     -909.164    -965.094     471.135
  H     -910.211    -964.658     469.725
  H     -903.522    -967.323     465.761
  H     -904.588    -966.853     464.459
  H     -903.719    -968.367     464.374

 3  4  5  6  7  8  9  10  11  12  13  23  27  28  29  30  32 0
 6-311+G(2d,p)
 ****
 34  35 0
 6-311+G(2d,p)
 ****
 1  2  14  15  16  17  18  19  20  21  22  24  25  26 0
 3-21G
 ****
 31  33  36  37  38  39  40  41  42  43  44  45  46 0
 3-21G
 ****


