%nproc=1
%NoSave
%Mem=1900MB
#P OB98/GEN NMR

erre ene a

0 1
  C     -535.354     808.781    -242.146
  O     -536.072     808.237    -243.238
  H     -534.379     809.127    -242.505
  H     -535.186     808.014    -241.383
  H     -535.889     809.628    -241.713
  P     -537.580     807.741    -242.998
  C     -538.628     809.753    -244.203
  O     -538.459     808.339    -244.205
  C     -539.599     810.171    -245.308
  O     -539.140     809.622    -246.566
  C     -541.039     809.690    -245.081
  O     -541.931     810.714    -245.530
  C     -541.148     808.484    -245.994
  O     -542.493     808.233    -246.402
  C     -540.226     808.858    -247.141
  N     -541.221     805.490    -250.776
  C     -541.922     806.611    -250.386
  N     -543.084     806.863    -251.034
  N     -541.534     807.417    -249.430
  C     -540.348     807.055    -248.870
  C     -539.564     805.967    -249.168
  C     -540.015     805.078    -250.214
  O     -539.439     804.058    -250.595
  N     -538.453     805.921    -248.356
  C     -538.573     806.984    -247.570
  N     -539.714     807.693    -247.837
  O     -538.137     808.004    -241.639
  O     -537.528     806.176    -243.328
  H     -542.493     807.383    -246.884
  H     -537.484     805.650    -242.508
  H     -541.582     804.901    -251.512
  H     -537.871     807.265    -246.803
  H     -540.723     809.493    -247.897
  H     -540.783     807.591    -245.468
  H     -543.439     806.299    -251.786
  H     -541.251     809.445    -244.040
  H     -543.607     807.695    -250.779
  H     -539.565     811.268    -245.410
  H     -537.661     810.223    -244.368
  H     -539.017     810.073    -243.227
  P     -543.246     811.023    -244.673
  C     -542.418     813.309    -243.812
  O     -543.415     812.611    -244.559
  O     -543.365     810.280    -243.382
  O     -544.435     810.616    -245.681
  H     -545.197     810.310    -245.161
  H     -542.641     814.355    -243.810
  H     -541.460     813.150    -244.261
  H     -542.406     812.945    -242.806

 6  7  8  9  10  11  12  13  14  15  26  29  33  34 0
 6-311+G(2d,p)
 ****
 36  38  39  40  41 0
 6-311+G(2d,p)
 ****
 1  2  3  4  5  16  17  18  19  20  21  22  23  24  25 0
 3-21G
 ****
 27  28  30  31  32  35  37  42  43  44  45  46  47 0
 3-21G
 ****
 48  49 0
 3-21G
 ****


