%nproc=1
%NoSave
%Mem=1900MB
#P OB98/GEN NMR

erre ene a

0 1
  C      935.803    -206.392     666.766
  O      936.341    -205.084     666.817
  P      935.399    -203.803     666.565
  C      937.286    -202.437     667.680
  O      936.407    -202.546     666.566
  C      937.927    -201.043     667.727
  O      936.904    -200.014     667.647
  C      938.700    -200.759     669.012
  O      939.953    -201.421     668.989
  C      938.765    -199.240     668.986
  O      939.844    -198.784     668.147
  C      937.392    -198.862     668.372
  N      936.424    -198.420     669.386
  C      936.801    -197.250     670.076
  O      937.864    -196.694     669.841
  N      935.944    -196.775     671.051
  C      934.855    -197.432     671.346
  N      934.067    -196.927     672.323
  C      934.466    -198.697     670.655
  C      935.299    -199.126     669.704
  O      934.220    -203.694     667.491
  O      934.993    -203.951     665.019
  H      939.711    -197.813     668.062
  H      934.333    -204.662     664.882
  H      933.560    -199.199     670.927
  H      935.096    -200.030     669.162
  H      937.510    -198.061     667.632
  H      938.932    -198.819     669.996
  H      938.105    -201.085     669.897
  H      938.593    -200.939     666.861
  H      934.380    -196.074     672.787
  H      938.069    -203.193     667.587
  H      933.210    -197.379     672.648
  H      936.731    -202.642     668.597
  P      940.626    -201.917     670.348
  C      941.446    -204.072     669.243
  O      941.821    -202.919     669.973
  O      939.668    -202.406     671.400
  O      941.427    -200.626     670.880
  H      941.267    -200.519     671.827
  H      942.349    -204.502     668.778
  H      940.719    -203.835     668.461
  H      941.015    -204.828     669.923
  H      936.578    -207.104     666.958
  H      935.388    -206.569     665.796
  H      935.036    -206.491     667.506

 3  4  5  6  7  8  9  10  11  12  13  23  27  28  29  30  32 0
 6-311+G(2d,p)
 ****
 34  35 0
 6-311+G(2d,p)
 ****
 1  2  14  15  16  17  18  19  20  21  22  24  25  26 0
 3-21G
 ****
 31  33  36  37  38  39  40  41  42  43  44  45  46 0
 3-21G
 ****


