%nproc=1
%NoSave
%Mem=1900MB
#P OB98/GEN NMR

erre ene a

0 1
  C       42.133     -20.484      13.570
  O       41.231     -21.099      12.677
  H       43.045     -20.230      13.024
  H       42.387     -21.181      14.373
  H       41.713     -19.570      13.997
  P       39.684     -21.174      13.075
  C       39.605     -22.769      15.102
  O       39.409     -22.627      13.701
  C       39.378     -24.207      15.568
  O       39.607     -24.314      16.990
  C       37.941     -24.674      15.335
  O       37.666     -25.165      14.036
  C       37.799     -25.777      16.379
  O       38.292     -27.029      15.872
  C       38.682     -25.277      17.524
  N       36.424     -25.943      22.057
  C       37.047     -26.875      21.251
  N       37.010     -28.156      21.681
  N       37.630     -26.575      20.121
  C       37.503     -25.274      19.772
  C       36.898     -24.261      20.482
  C       36.301     -24.594      21.759
  O       35.731     -23.807      22.508
  N       36.970     -23.064      19.811
  C       37.550     -23.368      18.668
  N       37.916     -24.692      18.609
  O       38.935     -21.261      11.660
  O       39.174     -20.021      13.885
  H       37.873     -27.197      15.009
  H       38.032     -20.904      11.740
  H       36.015     -26.225      22.930
  H       37.751     -22.667      17.865
  H       39.280     -26.090      17.954
  H       36.754     -25.939      16.656
  H       36.474     -28.450      22.482
  H       37.236     -23.874      15.583
  H       37.215     -28.893      21.004
  H       40.102     -24.865      15.073
  H       38.890     -22.102      15.588
  H       40.606     -22.429      15.381
  P       36.472     -24.535      13.177
  C       34.743     -24.059      15.064
  O       35.111     -24.857      13.960
  O       36.412     -25.493      11.897
  O       36.658     -23.108      12.794
  H       36.911     -25.099      11.158
  H       33.815     -24.411      15.465
  H       34.633     -23.043      14.748
  H       35.502     -24.119      15.816

 6  7  8  9  10  11  12  13  14  15  26  29  33  34 0
 6-311+G(2d,p)
 ****
 36  38  39  40  41 0
 6-311+G(2d,p)
 ****
 1  2  3  4  5  16  17  18  19  20  21  22  23  24  25 0
 3-21G
 ****
 27  28  30  31  32  35  37  42  43  44  45  46  47 0
 3-21G
 ****
 48  49 0
 3-21G
 ****


