%nproc=1
%NoSave
%Mem=1900MB
#P OB98/GEN NMR

erre ene a

0 1
  C     -365.509     284.104    -373.818
  O     -364.518     285.108    -373.817
  H     -365.137     283.247    -374.387
  H     -366.416     284.478    -374.299
  H     -365.740     283.773    -372.802
  P     -364.661     286.333    -372.796
  C     -366.183     287.937    -374.130
  O     -366.093     287.005    -373.061
  C     -367.408     288.841    -373.964
  O     -368.587     288.009    -373.785
  C     -367.293     289.725    -372.711
  O     -368.013     290.944    -372.849
  C     -367.955     288.871    -371.642
  O     -368.433     289.638    -370.535
  C     -369.063     288.187    -372.443
  N     -372.413     284.341    -372.563
  C     -372.477     285.577    -373.176
  N     -373.584     285.818    -373.925
  N     -371.563     286.500    -373.049
  C     -370.549     286.148    -372.217
  C     -370.383     284.966    -371.538
  C     -371.389     283.937    -371.711
  O     -371.392     282.838    -371.174
  N     -369.238     284.980    -370.784
  C     -368.715     286.167    -370.999
  N     -369.460     286.908    -371.889
  O     -363.651     287.431    -373.381
  O     -364.359     286.017    -371.360
  H     -369.082     290.277    -370.881
  H     -363.392     288.057    -372.682
  H     -373.131     283.656    -372.718
  H     -367.796     286.536    -370.559
  H     -369.958     288.820    -372.483
  H     -367.214     288.172    -371.253
  H     -374.390     285.217    -373.885
  H     -366.260     289.947    -372.452
  H     -373.798     286.802    -374.114
  H     -367.567     289.427    -374.876
  H     -366.253     287.356    -375.056
  H     -365.270     288.532    -374.191
  P     -367.219     292.254    -373.320
  C     -368.173     293.951    -371.521
  O     -367.078     293.272    -372.096
  O     -368.244     292.983    -374.308
  O     -365.907     291.971    -373.980
  H     -367.884     293.007    -375.217
  H     -367.827     294.572    -370.721
  H     -368.875     293.238    -371.141
  H     -368.647     294.557    -372.264

 6  7  8  9  10  11  12  13  14  15  26  29  33  34 0
 6-311+G(2d,p)
 ****
 36  38  39  40  41 0
 6-311+G(2d,p)
 ****
 1  2  3  4  5  16  17  18  19  20  21  22  23  24  25 0
 3-21G
 ****
 27  28  30  31  32  35  37  42  43  44  45  46  47 0
 3-21G
 ****
 48  49 0
 3-21G
 ****


