%nproc=1
%NoSave
%Mem=1900MB
#P OB98/GEN NMR

erre ene a

0 1
  C     -154.559     151.349     398.174
  O     -155.578     152.260     398.576
  P     -155.451     153.850     398.536
  C     -157.983     154.329     398.024
  O     -156.871     154.490     398.898
  C     -159.289     154.163     398.821
  O     -159.350     152.800     399.334
  C     -159.366     155.105     400.030
  O     -160.647     155.699     400.213
  C     -158.829     154.251     401.161
  O     -159.194     154.719     402.452
  C     -159.342     152.861     400.783
  N     -157.885     150.324     404.968
  C     -158.623     151.491     404.861
  N     -159.006     152.076     406.017
  N     -158.932     152.047     403.721
  C     -158.421     151.412     402.648
  C     -157.667     150.259     402.624
  C     -157.371     149.618     403.889
  O     -156.742     148.576     404.038
  N     -157.336     149.901     401.343
  C     -157.864     150.844     400.591
  N     -158.544     151.781     401.340
  O     -154.738     154.422     397.356
  O     -154.568     154.195     399.846
  H     -159.326     155.681     402.396
  H     -154.043     154.993     399.619
  H     -157.698     149.924     405.873
  H     -157.802     150.894     399.509
  H     -160.361     152.690     401.131
  H     -157.730     154.277     401.114
  H     -158.695     151.764     406.925
  H     -158.703     155.970     399.890
  H     -159.343     153.033     405.938
  H     -160.139     154.311     398.141
  H     -157.786     153.423     397.441
  H     -158.052     155.164     397.326
  P     -161.135     157.164     399.806
  C     -163.553     156.436     399.317
  O     -162.709     157.270     400.093
  O     -161.063     157.196     398.210
  O     -160.328     158.277     400.387
  H     -160.428     157.888     397.923
  H     -164.582     156.789     399.411
  H     -163.492     155.414     399.685
  H     -163.260     156.470     398.264
  H     -154.907     150.345     398.303
  H     -153.686     151.504     398.773
  H     -154.319     151.514     397.144

 3  4  5  6  7  8  9  10  11  12  23  26  30  31 0
 6-311+G(2d,p)
 ****
 33  35  36  37  38 0
 6-311+G(2d,p)
 ****
 1  2  13  14  15  16  17  18  19  20  21  22  24  25 0
 3-21G
 ****
 27  28  29  32  34  39  40  41  42  43  44  45  46  47  48  49 0
 3-21G
 ****


