%nproc=1
%NoSave
%Mem=1900MB
#P OB98/GEN NMR

erre ene a

0 1
  C      401.412     123.969     145.686
  O      401.721     123.495     146.985
  P      401.775     121.927     147.295
  C      404.273     121.160     147.028
  O      402.984     121.293     146.470
  C      404.486     119.700     147.446
  O      403.490     119.308     148.414
  C      404.379     118.753     146.251
  O      405.663     118.486     145.710
  C      403.710     117.534     146.855
  O      404.678     116.710     147.530
  C      402.748     118.181     147.879
  N      401.448     118.679     147.392
  C      400.475     119.076     148.303
  O      400.636     119.065     149.520
  N      399.275     119.466     147.763
  C      398.987     119.539     146.430
  O      397.858     119.652     145.970
  C      400.130     119.374     145.528
  C      401.282     118.934     146.037
  O      400.480     121.366     146.544
  O      401.790     121.559     148.741
  H      405.117     117.272     148.194
  H      399.744     121.244     147.172
  H      398.520     119.621     148.424
  H      399.981     119.560     144.471
  H      402.132     118.768     145.381
  H      402.540     117.496     148.709
  H      403.265     116.907     146.084
  H      403.713     119.179     145.489
  H      405.471     119.606     147.918
  H      404.377     121.824     147.894
  H      405.031     121.459     146.299
  P      405.793     117.992     144.194
  C      406.086     120.421     143.429
  O      405.322     119.239     143.303
  O      405.131     116.691     143.879
  O      407.378     117.924     143.966
  H      407.691     117.001     144.080
  H      405.778     121.124     142.650
  H      407.151     120.205     143.313
  H      405.903     120.874     144.408
  H      401.426     125.039     145.684
  H      400.439     123.625     145.403
  H      402.137     123.602     144.990

 3  4  5  6  7  8  9  10  11  12  13  23  28  29  30  31  32 0
 6-311+G(2d,p)
 ****
 33  34 0
 6-311+G(2d,p)
 ****
 1  2  14  15  16  17  18  19  20  21  22  24  25  26  27 0
 3-21G
 ****
 35  36  37  38  39  40  41  42  43  44  45 0
 3-21G
 ****


