%nproc=1
%NoSave
%Mem=1900MB
#P OB98/GEN NMR

erre ene a

0 1
  C      250.844      19.720       8.872
  O      251.872      20.687       8.940
  H      250.618      19.379       9.887
  H      251.173      18.859       8.283
  H      249.937      20.146       8.437
  P      252.328      21.426       7.593
  C      251.521      23.676       8.538
  O      251.428      22.751       7.466
  C      250.313      24.613       8.547
  O      249.104      23.814       8.641
  C      250.314      25.608       9.711
  O      249.795      26.853       9.245
  C      249.341      24.991      10.700
  O      248.736      25.966      11.547
  C      248.351      24.291       9.773
  N      244.511      23.080      12.825
  C      244.862      24.296      12.273
  N      244.093      25.357      12.598
  N      245.882      24.461      11.471
  C      246.556      23.311      11.219
  C      246.310      22.050      11.704
  C      245.185      21.884      12.603
  O      244.835      20.835      13.132
  N      247.235      21.148      11.237
  C      248.039      21.867      10.474
  N      247.675      23.187      10.440
  O      252.346      20.572       6.366
  O      253.781      22.001       7.938
  H      249.409      26.224      12.215
  H      254.476      21.426       7.567
  H      243.721      23.011      13.444
  H      248.897      21.484       9.937
  H      247.569      24.968       9.409
  H      249.869      24.265      11.332
  H      243.281      25.302      13.197
  H      251.306      25.757      10.146
  H      244.317      26.255      12.186
  H      250.273      25.136       7.584
  H      252.440      24.260       8.411
  H      251.578      23.129       9.487
  P      250.757      27.824       8.408
  C      249.356      27.406       6.287
  O      250.660      27.419       6.859
  O      252.145      27.974       8.940
  O      249.971      29.224       8.448
  H      250.621      29.951       8.412
  H      249.421      27.123       5.257
  H      248.924      28.382       6.362
  H      248.743      26.703       6.812

 6  7  8  9  10  11  12  13  14  15  26  29  33  34 0
 6-311+G(2d,p)
 ****
 36  38  39  40  41 0
 6-311+G(2d,p)
 ****
 1  2  3  4  5  16  17  18  19  20  21  22  23  24  25 0
 3-21G
 ****
 27  28  30  31  32  35  37  42  43  44  45  46  47 0
 3-21G
 ****
 48  49 0
 3-21G
 ****


