%nproc=1
%NoSave
%Mem=1900MB
#P OB98/GEN NMR

erre ene a

0 1
  C     -445.192    -815.461      32.136
  O     -444.152    -816.260      32.682
  P     -443.937    -816.212      34.275
  C     -443.282    -814.341      35.961
  O     -443.326    -814.768      34.605
  C     -441.843    -814.045      36.373
  O     -441.208    -813.163      35.424
  C     -441.717    -813.338      37.722
  O     -441.806    -814.238      38.809
  C     -440.309    -812.768      37.618
  O     -439.343    -813.798      37.912
  C     -440.236    -812.363      36.142
  N     -438.506    -808.076      34.075
  C     -438.055    -809.370      33.926
  N     -436.950    -809.539      33.171
  N     -438.638    -810.417      34.473
  C     -439.723    -810.092      35.216
  C     -440.275    -808.845      35.435
  C     -439.611    -807.704      34.835
  O     -439.935    -806.530      34.976
  N     -441.383    -808.921      36.231
  C     -441.517    -810.209      36.492
  N     -440.510    -810.954      35.933
  O     -442.699    -817.203      34.510
  O     -445.132    -816.603      35.082
  H     -439.434    -814.468      37.208
  H     -442.650    -817.455      35.445
  H     -438.019    -807.311      33.645
  H     -442.305    -810.642      37.092
  H     -439.253    -812.585      35.708
  H     -440.133    -811.954      38.325
  H     -436.425    -808.774      32.781
  H     -442.438    -812.521      37.808
  H     -436.558    -810.473      33.092
  H     -441.287    -814.993      36.385
  H     -443.691    -815.127      36.589
  H     -443.901    -813.445      36.070
  P     -441.883    -813.591      40.280
  C     -440.460    -811.740      41.421
  O     -440.521    -812.768      40.451
  O     -441.700    -814.854      41.244
  O     -443.147    -812.844      40.555
  H     -442.118    -814.685      42.109
  H     -439.413    -811.476      41.592
  H     -440.895    -812.072      42.369
  H     -440.996    -810.858      41.066
  H     -445.221    -815.590      31.074
  H     -445.009    -814.432      32.366
  H     -446.129    -815.759      32.557

 3  4  5  6  7  8  9  10  11  12  23  26  30  31 0
 6-311+G(2d,p)
 ****
 33  35  36  37  38 0
 6-311+G(2d,p)
 ****
 1  2  13  14  15  16  17  18  19  20  21  22  24  25 0
 3-21G
 ****
 27  28  29  32  34  39  40  41  42  43  44  45  46  47  48  49 0
 3-21G
 ****


