%nproc=1
%NoSave
%Mem=1900MB
#P OB98/GEN NMR

erre ene a

0 1
  C       15.178    -823.523    -199.534
  O       15.272    -822.315    -198.807
  H       15.476    -824.348    -198.883
  H       15.852    -823.494    -200.396
  H       14.151    -823.703    -199.871
  P       14.590    -820.998    -199.406
  C       12.118    -821.366    -198.763
  O       13.320    -820.664    -198.484
  C       10.899    -820.455    -198.575
  O       10.726    -820.179    -197.158
  C       11.096    -819.104    -199.273
  O        9.861    -818.515    -199.672
  C       11.719    -818.251    -198.178
  O       11.534    -816.852    -198.383
  C       11.006    -818.786    -196.939
  N       11.795    -816.065    -192.696
  C       11.020    -815.755    -193.793
  N       10.364    -814.571    -193.759
  N       10.907    -816.535    -194.846
  C       11.682    -817.650    -194.775
  C       12.508    -818.041    -193.754
  C       12.586    -817.201    -192.577
  O       13.280    -817.411    -191.588
  N       13.135    -819.228    -194.039
  C       12.693    -819.553    -195.238
  N       11.782    -818.634    -195.715
  O       13.907    -821.508    -200.761
  O       15.516    -819.848    -199.658
  H       11.958    -816.623    -199.230
  H       13.765    -820.769    -201.375
  H       11.818    -815.444    -191.906
  H       12.972    -820.438    -195.791
  H       10.058    -818.280    -196.780
  H       12.794    -818.440    -198.161
  H       10.575    -813.870    -193.070
  H       11.755    -819.166    -200.136
  H       10.049    -814.203    -194.664
  H        9.989    -820.970    -198.911
  H       12.071    -822.210    -198.071
  H       12.139    -821.776    -199.775
  P        9.765    -817.857    -201.130
  C        8.091    -819.565    -202.277
  O        8.379    -818.262    -201.814
  O       10.850    -818.652    -201.977
  O       10.001    -816.373    -201.151
  H       11.568    -818.053    -202.262
  H        7.105    -819.586    -202.693
  H        8.148    -820.254    -201.461
  H        8.801    -819.842    -203.028

 6  7  8  9  10  11  12  13  14  15  26  29  33  34 0
 6-311+G(2d,p)
 ****
 36  38  39  40  41 0
 6-311+G(2d,p)
 ****
 1  2  3  4  5  16  17  18  19  20  21  22  23  24  25 0
 3-21G
 ****
 27  28  30  31  32  35  37  42  43  44  45  46  47 0
 3-21G
 ****
 48  49 0
 3-21G
 ****


