%nproc=1
%NoSave
%Mem=1900MB
#P OB98/GEN NMR

erre ene a

0 1
  C      169.931    -106.842       5.221
  O      171.082    -107.359       5.869
  P      170.926    -107.868       7.384
  C      171.857    -105.747       8.575
  O      172.050    -107.112       8.243
  C      173.187    -104.991       8.536
  O      172.934    -103.595       8.840
  C      174.238    -105.488       9.534
  O      175.520    -105.286       8.927
  C      174.075    -104.539      10.706
  O      175.230    -104.486      11.536
  C      173.755    -103.240       9.974
  N      174.236     -99.811      13.660
  C      175.182    -100.658      13.110
  N      176.444    -100.526      13.571
  N      174.913    -101.549      12.192
  C      173.611    -101.552      11.820
  C      172.578    -100.795      12.316
  C      172.894     -99.787      13.303
  O      172.109     -98.959      13.754
  N      171.381    -101.145      11.753
  C      171.703    -102.058      10.859
  N      173.050    -102.306      10.830
  O      171.455    -109.374       7.309
  O      169.549    -107.771       7.961
  H      175.991    -104.234      10.975
  H      170.718    -110.001       7.175
  H      174.507     -99.132      14.350
  H      171.012    -102.567      10.206
  H      174.655    -102.735       9.601
  H      173.230    -104.860      11.326
  H      176.728     -99.840      14.253
  H      174.111    -106.536       9.818
  H      177.162    -101.111      13.161
  H      173.578    -105.036       7.513
  H      171.451    -105.685       9.591
  H      171.134    -105.299       7.885
  P      176.514    -106.541       8.834
  C      176.544    -107.201      11.338
  O      177.262    -106.671      10.241
  O      177.665    -106.009       7.853
  O      175.895    -107.791       8.298
  H      178.021    -106.753       7.333
  H      177.256    -107.592      12.069
  H      175.877    -108.012      11.029
  H      175.957    -106.407      11.806
  H      170.186    -106.545       4.225
  H      169.566    -105.995       5.764
  H      169.173    -107.596       5.185

 3  4  5  6  7  8  9  10  11  12  23  26  30  31 0
 6-311+G(2d,p)
 ****
 33  35  36  37  38 0
 6-311+G(2d,p)
 ****
 1  2  13  14  15  16  17  18  19  20  21  22  24  25 0
 3-21G
 ****
 27  28  29  32  34  39  40  41  42  43  44  45  46  47  48  49 0
 3-21G
 ****


