%nproc=1
%NoSave
%Mem=1900MB
#P OB98/GEN NMR

erre ene a

0 1
  C      205.703    -181.453      39.480
  O      206.138    -180.954      38.232
  H      206.303    -182.331      39.733
  H      204.652    -181.749      39.434
  H      205.844    -180.699      40.260
  P      205.336    -179.730      37.579
  C      207.020    -177.777      37.771
  O      206.433    -178.758      36.929
  C      207.145    -176.434      37.040
  O      207.510    -175.407      38.003
  C      208.220    -176.427      35.936
  O      207.793    -175.495      34.932
  C      209.418    -175.891      36.692
  O      210.441    -175.485      35.816
  C      208.747    -174.814      37.550
  N      209.584    -174.379      38.656
  C      210.273    -173.178      38.475
  O      210.168    -172.554      37.420
  N      211.090    -172.726      39.482
  C      211.258    -173.449      40.546
  N      212.092    -172.954      41.499
  C      210.593    -174.753      40.751
  C      209.775    -175.150      39.779
  O      204.348    -179.053      38.469
  O      204.621    -180.375      36.299
  H      211.190    -175.085      36.312
  H      203.671    -180.498      36.480
  H      210.780    -175.325      41.648
  H      209.241    -176.096      39.839
  H      208.489    -173.936      36.943
  H      209.848    -176.667      37.333
  H      208.382    -177.411      35.493
  H      206.163    -176.159      36.637
  H      212.535    -172.062      41.312
  H      208.012    -178.140      38.058
  H      212.314    -173.435      42.357
  H      206.418    -177.646      38.678
  P      206.920    -175.926      33.658
  C      204.370    -175.642      33.932
  O      205.604    -175.016      33.584
  O      206.651    -177.394      33.576
  O      207.775    -175.446      32.389
  H      207.606    -176.052      31.645
  H      203.573    -174.934      33.843
  H      204.421    -175.996      34.941
  H      204.190    -176.466      33.274

 6  7  8  9  10  11  12  13  14  15  16  26  30  31  32  33  35 0
 6-311+G(2d,p)
 ****
 37  38 0
 6-311+G(2d,p)
 ****
 1  2  3  4  5  17  18  19  20  21  22  23  24  25 0
 3-21G
 ****
 27  28  29  34  36  39  40  41  42  43  44  45  46 0
 3-21G
 ****


