%nproc=1
%NoSave
%Mem=1900MB
#P OB98/GEN NMR

erre ene a

0 1
  C      164.555     340.585    -236.229
  O      163.656     339.510    -236.415
  H      165.206     340.355    -235.381
  H      163.999     341.501    -236.009
  H      165.172     340.726    -237.122
  P      162.726     339.564    -237.724
  C      163.327     337.160    -238.592
  O      162.356     338.040    -238.056
  C      163.132     335.745    -238.044
  O      163.741     335.667    -236.730
  C      161.665     335.337    -237.904
  O      161.553     333.943    -238.200
  C      161.379     335.561    -236.429
  O      160.279     334.780    -235.970
  C      162.737     335.207    -235.803
  N      162.914     335.800    -234.479
  C      162.939     334.920    -233.394
  O      162.805     333.708    -233.575
  N      163.075     335.429    -232.128
  C      163.113     336.713    -231.952
  N      163.222     337.157    -230.672
  C      163.043     337.682    -233.063
  C      162.954     337.162    -234.287
  O      163.784     339.955    -238.860
  O      161.565     340.494    -237.617
  H      160.036     335.083    -235.067
  H      164.615     339.456    -238.803
  H      163.068     338.744    -232.867
  H      162.906     337.799    -235.161
  H      162.845     334.119    -235.708
  H      161.141     336.615    -236.247
  H      161.003     335.907    -238.557
  H      163.677     335.045    -238.687
  H      163.244     336.460    -229.939
  H      164.335     337.509    -238.344
  H      163.204     338.132    -230.414
  H      163.224     337.164    -239.681
  P      160.104     333.289    -238.377
  C      160.318     332.280    -240.750
  O      160.210     332.022    -239.355
  O      158.997     334.238    -238.685
  O      159.854     332.595    -236.948
  H      158.921     332.746    -236.702
  H      160.381     331.353    -241.280
  H      161.198     332.859    -240.939
  H      159.457     332.822    -241.080

 6  7  8  9  10  11  12  13  14  15  16  26  30  31  32  33  35 0
 6-311+G(2d,p)
 ****
 37  38 0
 6-311+G(2d,p)
 ****
 1  2  3  4  5  17  18  19  20  21  22  23  24  25 0
 3-21G
 ****
 27  28  29  34  36  39  40  41  42  43  44  45  46 0
 3-21G
 ****


