%nproc=1
%NoSave
%Mem=1900MB
#P OB98/GEN NMR

erre ene a

0 1
  C      541.307    -490.066     -98.106
  O      540.796    -490.106     -96.763
  P      539.631    -491.153     -96.432
  C      541.335    -492.283     -94.817
  O      539.985    -491.895     -95.055
  C      541.771    -491.871     -93.408
  O      541.784    -490.437     -93.253
  C      540.852    -492.383     -92.309
  O      541.148    -493.729     -91.965
  C      541.217    -491.457     -91.161
  O      542.439    -491.901     -90.544
  C      541.445    -490.120     -91.886
  N      538.183    -487.487     -88.941
  C      539.224    -488.291     -88.635
  N      540.030    -488.972     -89.472
  C      539.691    -488.745     -90.752
  C      538.658    -487.949     -91.218
  C      537.876    -487.296     -90.247
  N      536.821    -486.474     -90.562
  N      538.606    -487.966     -92.598
  C      539.602    -488.750     -92.957
  N      540.280    -489.251     -91.880
  O      539.850    -492.299     -97.532
  O      538.256    -490.577     -96.512
  H      543.159    -491.701     -91.170
  H      538.987    -492.671     -97.798
  H      539.435    -488.408     -87.575
  H      539.870    -488.980     -93.982
  H      542.279    -489.552     -91.457
  H      540.454    -491.433     -90.379
  H      539.796    -492.248     -92.581
  H      542.786    -492.251     -93.243
  H      541.994    -491.828     -95.564
  H      536.323    -486.021     -89.814
  H      536.604    -486.316     -91.536
  H      541.418    -493.370     -94.951
  P      540.244    -494.875     -92.631
  C      542.408    -495.827     -93.714
  O      541.238    -496.087     -92.957
  O      539.893    -494.264     -94.067
  O      539.017    -495.221     -91.860
  H      539.023    -494.589     -94.367
  H      543.110    -496.658     -93.581
  H      542.893    -494.903     -93.389
  H      542.145    -495.748     -94.775
  H      542.075    -489.324     -98.174
  H      540.514    -489.822     -98.782
  H      541.713    -491.023     -98.362

 3  4  5  6  7  8  9  10  11  12  22  25  29  30  31  32 0
 6-311+G(2d,p)
 ****
 33  36  37 0
 6-311+G(2d,p)
 ****
 1  2  13  14  15  16  17  18  19  20  21  23  24  26 0
 3-21G
 ****
 27  28  34  35  38  39  40  41  42  43  44  45  46  47  48 0
 3-21G
 ****


