%nproc=1
%NoSave
%Mem=1900MB
#P OB98/GEN NMR

erre ene a

0 1
  C     -208.458      29.669    -212.121
  O     -208.982      28.573    -212.838
  H     -208.916      29.687    -211.128
  H     -208.705      30.600    -212.639
  H     -207.374      29.590    -212.005
  P     -208.189      28.045    -214.124
  C     -208.918      30.061    -215.561
  O     -207.826      29.320    -215.033
  C     -208.450      31.233    -216.425
  O     -209.587      31.949    -216.957
  C     -207.642      32.256    -215.627
  O     -206.266      31.958    -215.474
  C     -207.837      33.524    -216.454
  O     -206.879      33.593    -217.521
  C     -209.253      33.346    -217.013
  N     -213.058      36.752    -217.248
  C     -212.251      36.276    -218.265
  N     -212.447      36.823    -219.487
  N     -211.329      35.367    -218.088
  C     -211.185      34.983    -216.799
  C     -211.914      35.393    -215.703
  C     -212.970      36.362    -215.919
  O     -213.707      36.822    -215.051
  N     -211.480      34.781    -214.551
  C     -210.444      34.061    -214.937
  N     -210.242      34.133    -216.298
  O     -209.324      27.314    -214.993
  O     -207.049      27.116    -213.838
  H     -207.042      34.410    -218.027
  H     -208.921      26.626    -215.553
  H     -213.770      37.433    -217.448
  H     -209.827      33.457    -214.282
  H     -209.308      33.645    -218.069
  H     -207.705      34.425    -215.851
  H     -213.062      37.605    -219.646
  H     -208.096      32.415    -214.641
  H     -211.713      36.700    -220.187
  H     -207.882      30.846    -217.280
  H     -209.490      30.432    -214.707
  H     -209.581      29.404    -216.133
  P     -205.458      32.521    -214.211
  C     -205.039      34.902    -215.175
  O     -205.666      34.109    -214.191
  O     -203.931      32.340    -214.660
  O     -205.745      31.828    -212.922
  H     -203.566      31.511    -214.295
  H     -205.283      35.931    -215.013
  H     -205.379      34.603    -216.144
  H     -203.978      34.773    -215.114

 6  7  8  9  10  11  12  13  14  15  26  29  33  34 0
 6-311+G(2d,p)
 ****
 36  38  39  40  41 0
 6-311+G(2d,p)
 ****
 1  2  3  4  5  16  17  18  19  20  21  22  23  24  25 0
 3-21G
 ****
 27  28  30  31  32  35  37  42  43  44  45  46  47 0
 3-21G
 ****
 48  49 0
 3-21G
 ****


