%nproc=1
%NoSave
%Mem=1900MB
#P OB98/GEN NMR

erre ene a

0 1
  C     -641.831     483.819    -416.597
  O     -640.550     483.634    -417.184
  P     -639.449     482.833    -416.331
  C     -639.422     480.881    -418.053
  O     -639.664     481.283    -416.709
  C     -638.269     479.884    -418.112
  O     -638.613     478.706    -417.369
  C     -637.923     479.401    -419.520
  O     -637.110     480.331    -420.209
  C     -637.157     478.125    -419.198
  O     -635.791     478.446    -418.877
  C     -637.895     477.586    -417.962
  N     -639.361     472.887    -416.770
  C     -638.353     473.663    -416.230
  N     -637.653     473.118    -415.209
  N     -638.058     474.868    -416.652
  C     -638.862     475.293    -417.662
  C     -639.887     474.621    -418.273
  C     -640.172     473.272    -417.834
  O     -641.011     472.513    -418.314
  N     -640.492     475.394    -419.238
  C     -639.842     476.547    -419.174
  N     -638.840     476.524    -418.246
  O     -640.014     482.926    -414.836
  O     -638.056     483.346    -416.439
  H     -635.404     478.859    -419.666
  H     -639.277     482.832    -414.200
  H     -639.553     471.974    -416.396
  H     -640.093     477.411    -419.778
  H     -637.189     477.223    -417.201
  H     -637.127     477.430    -420.045
  H     -637.923     472.254    -414.765
  H     -638.836     479.154    -420.076
  H     -636.936     473.693    -414.777
  H     -637.388     480.347    -417.635
  H     -639.166     481.765    -418.647
  H     -640.332     480.437    -418.456
  P     -637.067     480.188    -421.814
  C     -639.071     481.838    -422.025
  O     -638.559     480.548    -422.306
  O     -636.968     478.609    -422.043
  O     -635.961     480.933    -422.472
  H     -636.539     478.411    -422.905
  H     -638.292     482.607    -422.096
  H     -639.504     481.848    -421.019
  H     -639.852     482.065    -422.756
  H     -642.457     484.364    -417.272
  H     -641.729     484.367    -415.684
  H     -642.271     482.865    -416.394

 3  4  5  6  7  8  9  10  11  12  23  26  30  31  33  0
 6-311+G(2d,p)
 ****
 35  36  37  38 0
 6-311+G(2d,p)
 ****
 1  2  13  14  15  16  17  18  19  20  21  22  24  25  27  28  29 0
 3-21G
 ****
 32  34  39  40  41  42  43  44  45  46  47  48  49 0
 3-21G
 ****


