%nproc=1
%NoSave
%Mem=1900MB
#P OB98/GEN NMR

erre ene a

0 1
  C      112.592      75.848    -162.696
  O      113.971      75.485    -162.534
  P      114.739      76.069    -161.252
  C      116.793      77.252    -162.349
  O      116.305      76.146    -161.592
  C      117.582      76.751    -163.562
  O      116.700      76.301    -164.605
  C      118.446      77.832    -164.201
  O      119.627      78.045    -163.450
  C      118.695      77.257    -165.589
  O      119.878      76.445    -165.622
  C      117.430      76.398    -165.848
  N      116.595      76.933    -166.911
  C      116.735      76.321    -168.166
  O      117.547      75.405    -168.319
  N      115.974      76.785    -169.212
  C      115.163      77.779    -169.028
  N      114.438      78.195    -170.103
  C      115.006      78.472    -167.730
  C      115.746      78.004    -166.726
  O      114.645      74.875    -160.191
  O      114.147      77.333    -160.715
  H      119.749      75.757    -164.938
  H      114.595      75.233    -159.286
  H      114.322      79.305    -167.627
  H      115.698      78.454    -165.736
  H      117.715      75.375    -166.124
  H      118.834      78.054    -166.334
  H      117.871      78.768    -164.284
  H      118.212      75.905    -163.246
  H      114.577      77.702    -170.978
  H      117.428      77.885    -161.726
  H      113.782      78.970    -170.074
  H      115.940      77.867    -162.659
  P      119.983      79.540    -163.020
  C      122.445      79.439    -163.765
  O      121.551      79.514    -162.668
  O      119.317      79.638    -161.556
  O      119.521      80.643    -163.914
  H      119.384      80.550    -161.221
  H      123.459      79.633    -163.404
  H      122.186      80.185    -164.516
  H      122.415      78.430    -164.196
  H      112.206      75.394    -163.584
  H      112.510      76.912    -162.775
  H      112.032      75.509    -161.850

 3  4  5  6  7  8  9  10  11  12  13  21  23  27  28  29  30  32 0
 6-311+G(2d,p)
 ****
 34  35 0
 6-311+G(2d,p)
 ****
 1  2  14  15  16  17  18  19  20  22  24  25  26 0
 3-21G
 ****
 31  33  36  37  38  39  40  41  42  43  44  45  46 0
 3-21G
 ****


