%nproc=1
%NoSave
%Mem=1900MB
#P OB98/GEN NMR

erre ene a

0 1
  C     -431.781      39.558     245.711
  O     -432.381      38.685     244.777
  H     -430.829      39.127     246.038
  H     -432.427      39.684     246.585
  H     -431.587      40.530     245.246
  P     -433.840      39.081     244.246
  C     -435.143      37.498     245.846
  O     -434.859      38.837     245.461
  C     -435.788      37.490     247.234
  O     -434.825      37.930     248.221
  C     -436.971      38.436     247.374
  O     -438.165      37.910     246.816
  C     -437.052      38.578     248.883
  O     -437.799      37.507     249.479
  C     -435.571      38.527     249.304
  N     -435.060      39.851     249.655
  C     -435.556      40.394     250.841
  O     -436.371      39.812     251.559
  N     -435.117      41.648     251.152
  C     -434.287      42.421     250.388
  O     -433.974      43.564     250.699
  C     -433.807      41.803     249.137
  C     -434.212      40.568     248.831
  O     -434.187      37.904     243.217
  O     -433.934      40.428     243.608
  H     -434.124      38.236     242.303
  H     -437.695      37.613     250.445
  H     -435.462      42.056     252.005
  H     -433.151      42.390     248.508
  H     -433.885      40.097     247.912
  H     -435.442      37.869     250.172
  H     -437.540      39.508     249.164
  H     -436.729      39.416     246.935
  H     -436.085      36.462     247.476
  H     -434.212      36.920     245.886
  H     -435.810      37.044     245.104
  P     -439.064      38.887     245.914
  C     -440.366      39.564     248.106
  O     -439.682      39.969     246.925
  O     -440.289      37.918     245.559
  O     -438.331      39.443     244.736
  H     -440.417      37.232     246.243
  H     -440.699      40.429     248.640
  H     -439.703      38.996     248.725
  H     -441.210      38.962     247.841

 6  7  8  9  10  11  12  13  14  15  16  27  31  32  33  34  35 0
 6-311+G(2d,p)
 ****
 36  37 0
 6-311+G(2d,p)
 ****
 1  2  3  4  5  17  18  19  20  21  22  23  24  25 0
 3-21G
 ****
 26  28  29  30  38  39  40  41  42  43  44  45 0
 3-21G
 ****


