%nproc=1
%NoSave
%Mem=1900MB
#P OB98/GEN NMR

erre ene a

0 1
  C      649.536     867.084     764.109
  O      650.233     866.216     763.234
  H      648.480     866.785     764.120
  H      649.609     868.120     763.772
  H      649.938     866.991     765.125
  P      651.797     866.505     763.038
  C      651.393     864.581     761.354
  O      652.186     865.711     761.699
  C      651.718     864.119     759.935
  O      653.139     863.897     759.784
  C      651.026     862.807     759.523
  O      649.712     863.052     759.083
  C      651.926     862.359     758.376
  O      651.565     863.058     757.185
  C      653.336     862.818     758.843
  N      657.104     859.390     758.194
  C      656.412     860.136     757.317
  N      655.389     860.992     757.536
  C      655.090     861.023     758.853
  C      655.710     860.313     759.869
  C      656.774     859.462     759.501
  N      657.473     858.684     760.399
  N      655.139     860.598     761.095
  C      654.232     861.523     760.826
  N      654.143     861.792     759.481
  O      652.661     866.245     764.231
  O      651.778     868.027     762.532
  H      650.611     862.904     757.024
  H      651.040     868.165     761.907
  H      656.732     860.047     756.270
  H      653.627     862.044     761.574
  H      653.924     863.212     758.011
  H      651.849     861.289     758.169
  H      651.082     862.064     760.332
  H      651.437     864.927     759.239
  H      650.312     864.837     761.428
  H      658.057     857.965     760.032
  H      657.124     858.649     761.364
  H      651.607     863.781     762.073
  P      648.492     862.093     759.524
  C      647.007     864.128     758.989
  O      647.193     862.711     758.823
  O      648.394     861.852     760.994
  O      648.747     860.746     758.675
  H      648.230     860.006     759.074
  H      646.115     864.432     758.483
  H      647.846     864.649     758.576
  H      646.922     864.357     760.031

 6  7  8  9  10  11  12  13  14  15  25  28  32  33  34  35 0
 6-311+G(2d,p)
 ****
 36  39  40 0
 6-311+G(2d,p)
 ****
 1  2  3  4  5  16  17  18  19  20  21  22  23  24 0
 3-21G
 ****
 26  27  29  30  31  37  38  41  42  43  44  45  46  47 0
 3-21G
 ****
 48 0
 3-21G
 ****


