%nproc=1
%NoSave
%Mem=1900MB
#P OB98/GEN NMR

erre ene a

0 1
  C      219.643    -397.495     192.190
  O      218.698    -396.755     192.947
  P      217.713    -397.574     193.912
  C      218.120    -399.276     195.819
  O      218.592    -398.733     194.591
  C      218.259    -400.794     195.833
  O      217.319    -401.358     194.875
  C      219.659    -401.303     195.455
  O      220.027    -402.369     196.347
  C      219.459    -401.907     194.079
  O      220.425    -402.916     193.793
  C      218.025    -402.419     194.205
  N      217.155    -406.121     190.879
  C      217.626    -406.189     192.171
  N      217.959    -407.419     192.625
  N      217.753    -405.152     192.956
  C      217.350    -403.993     192.384
  C      216.862    -403.797     191.115
  C      216.777    -404.946     190.240
  O      216.456    -404.932     189.049
  N      216.539    -402.478     190.902
  C      216.836    -401.878     192.038
  N      217.379    -402.745     192.952
  O      216.776    -398.363     192.877
  O      216.899    -396.743     194.847
  H      220.325    -403.612     194.471
  H      215.840    -398.150     193.053
  H      217.090    -406.946     190.311
  H      216.714    -400.820     192.232
  H      217.987    -403.310     194.841
  H      219.543    -401.117     193.323
  H      217.852    -408.264     192.090
  H      220.436    -400.534     195.462
  H      218.285    -407.497     193.584
  H      217.963    -401.161     196.822
  H      217.069    -399.007     195.949
  H      218.696    -398.839     196.641
  P      221.585    -402.465     196.724
  C      223.239    -400.811     197.878
  O      222.008    -400.993     197.199
  O      222.301    -402.624     195.303
  O      221.915    -403.577     197.662
  H      223.167    -403.070     195.406
  H      223.858    -401.712     197.854
  H      223.038    -400.544     198.917
  H      223.785    -399.990     197.396
  H      220.228    -396.824     191.596
  H      219.129    -398.181     191.550
  H      220.285    -398.037     192.853

 3  4  5  6  7  8  9  10  11  12  23  26  30  31  33  0
 6-311+G(2d,p)
 ****
 35  36  37  38 0
 6-311+G(2d,p)
 ****
 1  2  13  14  15  16  17  18  19  20  21  22  24  25  27  28  29 0
 3-21G
 ****
 32  34  39  40  41  42  43  44  45  46  47  48  49 0
 3-21G
 ****


