%nproc=1
%NoSave
%Mem=1900MB
#P OB98/GEN NMR

erre ene a

0 1
  C      -74.493    -260.223    -232.606
  O      -73.674    -259.226    -232.035
  H      -74.166    -260.398    -233.635
  H      -75.536    -259.894    -232.623
  H      -74.409    -261.161    -232.049
  P      -73.855    -258.870    -230.481
  C      -76.046    -258.710    -229.135
  O      -75.345    -258.305    -230.305
  C      -77.461    -258.134    -229.152
  O      -78.260    -258.795    -230.159
  C      -78.217    -258.310    -227.838
  O      -77.757    -257.395    -226.866
  C      -79.647    -258.096    -228.308
  O      -79.936    -256.696    -228.460
  C      -79.628    -258.798    -229.686
  N      -80.168    -260.158    -229.636
  C      -81.282    -260.407    -230.429
  O      -81.810    -259.551    -231.138
  N      -81.806    -261.672    -230.344
  C      -81.382    -262.654    -229.494
  O      -82.010    -263.689    -229.293
  C      -80.155    -262.360    -228.741
  C      -79.620    -261.139    -228.830
  O      -72.781    -258.027    -229.879
  O      -73.936    -260.309    -229.776
  H      -73.070    -260.517    -229.370
  H      -79.484    -256.408    -229.278
  H      -82.644    -261.849    -230.877
  H      -79.751    -263.137    -228.101
  H      -78.733    -260.891    -228.260
  H      -80.215    -258.224    -230.417
  H      -80.380    -258.499    -227.609
  H      -78.112    -259.341    -227.481
  H      -77.392    -257.070    -229.421
  H      -75.511    -258.333    -228.257
  H      -76.074    -259.804    -229.094
  P      -77.756    -257.765    -225.307
  C      -79.401    -257.258    -223.407
  O      -79.261    -257.649    -224.769
  O      -76.745    -257.041    -224.483
  O      -77.487    -259.347    -225.284
  H      -76.731    -259.531    -224.693
  H      -80.440    -257.212    -223.154
  H      -78.957    -256.295    -223.265
  H      -78.912    -257.973    -222.779

 6  7  8  9  10  11  12  13  14  15  16  27  31  32  33  34  35 0
 6-311+G(2d,p)
 ****
 36  37 0
 6-311+G(2d,p)
 ****
 1  2  3  4  5  17  18  19  20  21  22  23  24  25 0
 3-21G
 ****
 26  28  29  30  38  39  40  41  42  43  44  45 0
 3-21G
 ****


