%nproc=1
%NoSave
%Mem=1900MB
#P OB98/GEN NMR

erre ene a

0 1
  C      180.661    -332.331     -64.067
  O      181.976    -331.934     -63.747
  H      179.962    -331.710     -63.503
  H      180.514    -333.376     -63.779
  H      180.455    -332.211     -65.134
  P      183.168    -332.352     -64.729
  C      184.384    -330.328     -63.690
  O      184.512    -331.648     -64.197
  C      185.567    -329.943     -62.797
  O      185.584    -330.763     -61.610
  C      186.913    -330.168     -63.490
  O      187.347    -329.117     -64.333
  C      187.850    -330.334     -62.296
  O      188.304    -329.056     -61.817
  C      186.954    -331.011     -61.252
  N      189.493    -334.788     -58.934
  C      189.627    -333.421     -58.768
  N      190.599    -333.015     -57.921
  N      188.884    -332.548     -59.392
  C      188.022    -333.099     -60.278
  C      187.811    -334.437     -60.539
  C      188.600    -335.398     -59.800
  O      188.529    -336.621     -59.914
  N      186.848    -334.615     -61.503
  C      186.530    -333.391     -61.877
  N      187.199    -332.436     -61.144
  O      182.856    -331.527     -66.070
  O      183.279    -333.818     -65.012
  H      187.577    -328.634     -61.330
  H      183.238    -331.989     -66.840
  H      190.071    -335.416     -58.406
  H      185.811    -333.142     -62.649
  H      187.107    -330.581     -60.256
  H      188.743    -330.908     -62.560
  H      191.267    -333.644     -57.510
  H      186.901    -331.109     -64.049
  H      190.901    -332.039     -57.977
  H      185.450    -328.900     -62.471
  H      183.458    -330.298     -63.115
  H      184.277    -329.614     -64.511
  P      188.363    -329.418     -65.530
  C      187.258    -328.059     -67.456
  O      188.311    -328.156     -66.520
  O      187.617    -330.575     -66.348
  O      189.729    -329.834     -65.107
  H      187.957    -331.449     -66.078
  H      187.374    -327.165     -68.032
  H      186.322    -328.031     -66.938
  H      187.280    -328.908     -68.107

 6  7  8  9  10  11  12  13  14  15  26  29  33  34 0
 6-311+G(2d,p)
 ****
 36  38  39  40  41 0
 6-311+G(2d,p)
 ****
 1  2  3  4  5  16  17  18  19  20  21  22  23  24  25 0
 3-21G
 ****
 27  28  30  31  32  35  37  42  43  44  45  46  47 0
 3-21G
 ****
 48  49 0
 3-21G
 ****


