%nproc=1
%NoSave
%Mem=1900MB
#P OB98/GEN NMR

erre ene a

0 1
  C      791.217    1043.614     198.325
  O      789.789    1043.734     198.250
  P      789.000    1045.003     198.825
  C      787.139    1043.310     199.394
  O      787.450    1044.633     198.955
  C      785.986    1043.299     200.406
  O      786.280    1044.134     201.539
  C      784.656    1043.821     199.861
  O      784.016    1042.824     199.085
  C      783.928    1044.186     201.144
  O      783.347    1043.018     201.763
  C      785.080    1044.724     202.020
  N      782.893    1049.119     203.558
  C      782.581    1047.814     203.775
  N      783.205    1046.704     203.326
  C      784.272    1047.032     202.593
  C      784.728    1048.304     202.265
  C      783.984    1049.389     202.785
  N      784.306    1050.708     202.542
  N      785.859    1048.251     201.464
  C      786.102    1046.961     201.335
  N      785.174    1046.180     201.974
  O      789.271    1046.284     198.100
  O      789.480    1045.112     200.367
  H      782.885    1043.318     202.577
  H      789.426    1046.028     200.656
  H      781.700    1047.648     204.394
  H      786.919    1046.548     200.765
  H      784.961    1044.446     203.073
  H      783.111    1044.903     200.991
  H      784.815    1044.715     199.268
  H      785.868    1042.270     200.780
  H      788.039    1042.879     199.845
  H      783.698    1051.418     202.911
  H      785.086    1050.915     201.922
  H      786.863    1042.702     198.518
  P      784.028    1042.918     197.487
  C      781.592    1042.429     196.784
  O      782.916    1041.898     196.944
  O      785.358    1042.800     196.840
  O      783.363    1044.355     197.188
  H      783.736    1044.713     196.353
  H      781.099    1042.446     197.765
  H      781.031    1041.756     196.125
  H      781.622    1043.423     196.358
  H      791.521    1042.690     197.880
  H      791.523    1043.634     199.350
  H      791.671    1044.429     197.801

 3  4  5  6  7  8  9  10  11  12  22  25  29  30  31  32 0
 6-311+G(2d,p)
 ****
 33  36  37 0
 6-311+G(2d,p)
 ****
 1  2  13  14  15  16  17  18  19  20  21  23  24  26 0
 3-21G
 ****
 27  28  34  35  38  39  40  41  42  43  44  45  46  47  48 0
 3-21G
 ****


