%nproc=1
%NoSave
%Mem=1900MB
#P OB98/GEN NMR

erre ene a

0 1
  C     -111.398     136.020     -48.188
  O     -112.389     136.246     -47.200
  P     -113.911     135.908     -47.577
  C     -114.615     138.070     -46.252
  O     -114.810     136.687     -46.502
  C     -115.591     138.555     -45.177
  O     -116.920     138.655     -45.729
  C     -115.719     137.628     -43.974
  O     -114.615     137.751     -43.092
  C     -117.053     138.084     -43.393
  O     -116.875     139.277     -42.613
  C     -117.862     138.396     -44.667
  N     -118.794     137.331     -45.034
  C     -120.070     137.414     -44.484
  O     -120.422     138.321     -43.732
  N     -120.929     136.401     -44.817
  C     -120.627     135.306     -45.574
  O     -121.422     134.405     -45.805
  C     -119.254     135.257     -46.099
  C     -118.415     136.255     -45.810
  O     -113.988     134.373     -47.136
  O     -114.234     136.174     -49.007
  H     -113.355     134.168     -46.426
  H     -117.751     139.497     -42.240
  H     -121.868     136.450     -44.450
  H     -118.974     134.399     -46.697
  H     -117.398     136.231     -46.181
  H     -118.434     139.323     -44.534
  H     -117.507     137.330     -42.741
  H     -115.804     136.588     -44.313
  H     -115.278     139.557     -44.857
  H     -114.784     138.627     -47.177
  H     -113.580     138.231     -45.931
  P     -113.638     136.477     -42.981
  C     -114.320     135.979     -40.507
  O     -113.300     136.309     -41.424
  O     -112.292     137.062     -43.617
  O     -114.166     135.257     -43.661
  H     -112.098     137.968     -43.325
  H     -113.861     135.566     -39.605
  H     -115.009     135.239     -40.923
  H     -114.874     136.882     -40.237
  H     -110.438     136.288     -47.798
  H     -111.612     136.616     -49.051
  H     -111.396     134.985     -48.461

 3  4  5  6  7  8  9  10  11  12  13  24  28  29  30  31  32 0
 6-311+G(2d,p)
 ****
 33  34 0
 6-311+G(2d,p)
 ****
 1  2  14  15  16  17  18  19  20  21  22  23  25  26  27 0
 3-21G
 ****
 35  36  37  38  39  40  41  42  43  44  45 0
 3-21G
 ****


