%nproc=1
%NoSave
%Mem=1900MB
#P OB98/GEN NMR

erre ene a

0 1
  C      660.063     536.307     550.611
  O      661.245     535.676     550.148
  P      662.400     535.374     551.221
  C      664.563     536.616     552.004
  O      663.342     536.689     551.259
  C      665.664     537.416     551.322
  O      666.050     536.752     550.083
  C      665.280     538.858     550.997
  O      666.425     539.684     551.199
  C      664.973     538.824     549.520
  O      665.125     540.096     548.896
  C      665.962     537.735     549.036
  N      665.552     537.137     547.758
  C      665.728     537.896     546.610
  O      666.131     539.065     546.692
  N      665.396     537.366     545.388
  C      664.825     536.192     545.346
  N      664.528     535.698     544.111
  C      664.522     535.394     546.550
  C      664.922     535.917     547.694
  O      663.306     534.286     550.479
  O      661.908     534.896     552.544
  H      664.763     540.036     547.986
  H      663.700     533.671     551.122
  H      664.010     534.441     546.456
  H      664.760     535.398     548.643
  H      666.966     538.178     548.885
  H      663.934     538.484     549.344
  H      664.455     539.228     551.606
  H      666.558     537.402     551.971
  H      664.733     536.264     543.301
  H      664.874     535.571     552.052
  H      664.082     534.798     543.976
  H      664.384     536.972     553.014
  P      666.318     541.242     550.800
  C      666.382     542.547     548.587
  O      666.379     541.272     549.204
  O      667.786     541.778     551.193
  O      665.254     542.061     551.471
  H      667.834     542.737     551.054
  H      666.571     542.418     547.520
  H      667.179     543.180     549.022
  H      665.416     543.023     548.731
  H      659.388     536.444     549.792
  H      660.309     537.259     551.034
  H      659.600     535.694     551.356

 3  4  5  6  7  8  9  10  11  12  13  21  23  27  28  29  30  32 0
 6-311+G(2d,p)
 ****
 34  35 0
 6-311+G(2d,p)
 ****
 1  2  14  15  16  17  18  19  20  22  24  25  26 0
 3-21G
 ****
 31  33  36  37  38  39  40  41  42  43  44  45  46 0
 3-21G
 ****


