%nproc=1
%NoSave
%Mem=1900MB
#P OB98/GEN NMR

erre ene a

0 1
  C       31.821    -191.825    -131.536
  O       31.175    -192.917    -130.874
  P       31.351    -193.022    -129.282
  C       33.201    -194.081    -127.765
  O       32.582    -194.025    -129.039
  C       34.186    -195.254    -127.688
  O       33.494    -196.500    -127.999
  C       35.387    -195.137    -128.636
  O       36.520    -195.674    -127.938
  C       35.001    -196.041    -129.791
  O       36.134    -196.474    -130.531
  C       34.253    -197.150    -129.043
  N       33.391    -197.943    -129.917
  C       34.012    -198.891    -130.722
  O       35.232    -199.026    -130.775
  N       33.180    -199.652    -131.500
  C       31.827    -199.502    -131.607
  O       31.129    -200.213    -132.321
  C       31.242    -198.408    -130.819
  C       32.040    -197.689    -130.026
  O       30.061    -193.872    -128.876
  O       31.468    -191.689    -128.619
  H       29.827    -194.558    -129.527
  H       36.903    -196.531    -129.931
  H       33.608    -200.369    -132.068
  H       30.178    -198.221    -130.922
  H       31.644    -196.863    -129.450
  H       34.962    -197.828    -128.552
  H       34.323    -195.509    -130.470
  H       35.592    -194.104    -128.936
  H       34.538    -195.331    -126.651
  H       32.440    -194.208    -126.988
  H       33.702    -193.128    -127.566
  P       37.372    -194.686    -126.997
  C       39.017    -192.698    -127.465
  O       38.344    -193.842    -127.950
  O       38.371    -195.741    -126.312
  O       36.572    -193.916    -125.995
  H       38.775    -196.350    -126.951
  H       39.792    -192.418    -128.184
  H       39.488    -192.900    -126.502
  H       38.310    -191.869    -127.368
  H       31.622    -191.876    -132.586
  H       32.877    -191.881    -131.370
  H       31.447    -190.901    -131.147

 3  4  5  6  7  8  9  10  11  12  13  24  28  29  30  31  32 0
 6-311+G(2d,p)
 ****
 33  34 0
 6-311+G(2d,p)
 ****
 1  2  14  15  16  17  18  19  20  21  22  23  25  26  27 0
 3-21G
 ****
 35  36  37  38  39  40  41  42  43  44  45 0
 3-21G
 ****


