%nproc=1
%NoSave
%Mem=1900MB
#P OB98/GEN NMR

erre ene a

0 1
  C       -3.627    -347.191    1377.353
  O       -3.616    -347.451    1378.743
  P       -4.969    -347.434    1379.593
  C       -6.018    -348.878    1381.444
  O       -4.901    -348.688    1380.582
  C       -6.059    -350.327    1381.936
  O       -6.169    -351.250    1380.815
  C       -4.812    -350.780    1382.673
  O       -4.551    -350.170    1383.922
  C       -4.991    -352.285    1382.669
  O       -5.889    -352.718    1383.703
  C       -5.622    -352.516    1381.274
  N       -4.665    -353.085    1380.317
  C       -4.379    -354.425    1380.461
  O       -4.901    -355.154    1381.336
  N       -3.453    -354.954    1379.594
  C       -2.773    -354.252    1378.623
  O       -1.921    -354.754    1377.906
  C       -3.101    -352.812    1378.547
  C       -4.018    -352.293    1379.376
  O       -6.230    -347.346    1378.787
  O       -4.762    -346.188    1380.592
  H       -5.931    -353.692    1383.649
  H       -4.009    -346.269    1381.183
  H       -3.232    -355.947    1379.682
  H       -2.582    -352.238    1377.782
  H       -4.269    -351.269    1379.318
  H       -6.480    -353.220    1381.350
  H       -4.033    -352.812    1382.831
  H       -3.948    -350.563    1382.055
  H       -6.969    -350.459    1382.533
  H       -6.944    -348.660    1380.886
  H       -5.953    -348.187    1382.301
  P       -3.264    -350.495    1384.815
  C       -1.527    -349.173    1386.240
  O       -2.685    -349.114    1385.419
  O       -2.272    -351.461    1384.214
  O       -3.925    -351.176    1386.127
  H       -3.307    -351.835    1386.470
  H       -1.319    -348.156    1386.582
  H       -0.662    -349.512    1385.668
  H       -1.701    -349.823    1387.106
  H       -2.629    -347.249    1376.971
  H       -4.020    -346.212    1377.176
  H       -4.240    -347.916    1376.859

 3  4  5  6  7  8  9  10  11  12  13  23  28  29  30  31  32 0
 6-311+G(2d,p)
 ****
 33  34 0
 6-311+G(2d,p)
 ****
 1  2  14  15  16  17  18  19  20  21  22  24  25  26  27 0
 3-21G
 ****
 35  36  37  38  39  40  41  42  43  44  45 0
 3-21G
 ****


