%nproc=1
%NoSave
%Mem=1900MB
#P OB98/GEN NMR

erre ene a

0 1
  C      -23.597    -686.800     -90.202
  O      -24.400    -685.868     -90.908
  P      -24.045    -685.460     -92.420
  C      -23.847    -682.900     -92.306
  O      -24.691    -683.999     -92.618
  C      -24.354    -681.638     -93.025
  O      -24.571    -681.972     -94.418
  C      -25.680    -681.067     -92.524
  O      -25.573    -680.207     -91.401
  C      -26.107    -680.254     -93.747
  O      -25.397    -679.001     -93.764
  C      -25.669    -681.147     -94.899
  N      -27.910    -683.049     -99.091
  C      -26.836    -682.247     -98.925
  N      -26.315    -681.771     -97.775
  C      -26.987    -682.247     -96.707
  C      -28.101    -683.074     -96.720
  C      -28.568    -683.485     -97.987
  N      -29.646    -684.322     -98.153
  N      -28.531    -683.326     -95.434
  C      -27.684    -682.662     -94.663
  N      -26.733    -682.005     -95.393
  O      -24.417    -686.482     -93.443
  O      -22.479    -685.152     -92.388
  H      -25.527    -678.592     -94.643
  H      -22.119    -685.162     -93.303
  H      -26.332    -681.947     -99.839
  H      -27.727    -682.636     -93.586
  H      -25.279    -680.560     -95.754
  H      -27.178    -680.000     -93.733
  H      -26.417    -681.869     -92.350
  H      -23.559    -680.879     -92.973
  H      -22.839    -683.129     -92.650
  H      -29.825    -684.670     -99.072
  H      -30.028    -684.773     -97.325
  H      -23.820    -682.741     -91.221
  P      -26.503    -680.553     -90.129
  C      -26.255    -678.029     -89.447
  O      -26.215    -679.388     -89.052
  O      -26.374    -681.945     -89.617
  O      -27.973    -680.200     -90.662
  H      -28.141    -679.265     -90.841
  H      -26.196    -677.406     -88.549
  H      -27.199    -677.800     -89.964
  H      -25.420    -677.794     -90.097
  H      -23.993    -686.939     -89.218
  H      -22.596    -686.429     -90.134
  H      -23.596    -687.735     -90.721

 3  4  5  6  7  8  9  10  11  12  22  25  29  30  31  32 0
 6-311+G(2d,p)
 ****
 33  36  37 0
 6-311+G(2d,p)
 ****
 1  2  13  14  15  16  17  18  19  20  21  23  24  26 0
 3-21G
 ****
 27  28  34  35  38  39  40  41  42  43  44  45  46  47  48 0
 3-21G
 ****


