%nproc=1
%NoSave
%Mem=1900MB
#P OB98/GEN NMR

erre ene a

0 1
  C       82.544      41.904       0.707
  O       82.063      41.275      -0.485
  P       83.078      40.271      -1.229
  C       85.368      40.546      -2.436
  O       84.433      41.084      -1.510
  C       85.871      41.629      -3.387
  O       84.856      41.997      -4.338
  C       86.261      42.930      -2.700
  O       87.552      42.850      -2.116
  C       86.263      43.896      -3.878
  O       87.511      43.801      -4.588
  C       85.110      43.363      -4.745
  N       82.442      47.342      -6.398
  C       83.680      46.878      -6.799
  N       84.278      47.555      -7.803
  N       84.275      45.845      -6.266
  C       83.545      45.247      -5.294
  C       82.312      45.612      -4.808
  C       81.677      46.779      -5.385
  O       80.598      47.251      -5.045
  N       81.886      44.758      -3.824
  C       82.846      43.859      -3.734
  N       83.883      44.122      -4.597
  O       82.429      40.122      -2.684
  O       83.237      38.955      -0.547
  H       87.404      44.300      -5.422
  H       82.679      39.263      -3.075
  H       82.034      48.148      -6.839
  H       82.838      43.005      -3.070
  H       85.375      43.342      -5.807
  H       86.152      44.939      -3.570
  H       83.846      48.314      -8.306
  H       85.499      43.234      -1.973
  H       85.170      47.207      -8.135
  H       86.732      41.225      -3.937
  H       84.899      39.746      -3.013
  H       86.197      40.095      -1.881
  P       87.686      43.274      -0.574
  C       88.185      45.513       0.637
  O       87.884      44.863      -0.582
  O       89.124      42.705      -0.165
  O       86.603      42.749       0.308
  H       89.144      42.493       0.788
  H       88.931      44.955       1.209
  H       87.274      45.624       1.230
  H       88.585      46.506       0.415
  H       81.783      42.542       1.105
  H       83.413      42.485       0.478
  H       82.795      41.155       1.429

 3  4  5  6  7  8  9  10  11  12  23  26  30  31  33  0
 6-311+G(2d,p)
 ****
 35  36  37  38 0
 6-311+G(2d,p)
 ****
 1  2  13  14  15  16  17  18  19  20  21  22  24  25  27  28  29 0
 3-21G
 ****
 32  34  39  40  41  42  43  44  45  46  47  48  49 0
 3-21G
 ****


