%nproc=1
%NoSave
%Mem=1900MB
#P OB98/GEN NMR

erre ene a

0 1
  C      865.649     943.373     233.399
  O      865.328     942.794     232.153
  H      865.239     944.385     233.433
  H      866.733     943.430     233.515
  H      865.220     942.791     234.222
  P      865.624     941.224     231.971
  C      863.083     940.714     232.182
  O      864.398     940.448     232.653
  C      862.128     939.622     232.655
  O      862.563     938.352     232.088
  C      862.072     939.446     234.179
  O      860.736     939.108     234.547
  C      862.972     938.244     234.420
  O      862.705     937.561     235.636
  C      862.674     937.401     233.178
  N      863.710     936.412     232.902
  C      863.595     935.182     233.544
  O      862.642     934.837     234.241
  N      864.639     934.316     233.348
  C      865.766     934.564     232.617
  O      866.684     933.757     232.501
  C      865.833     935.886     231.977
  C      864.821     936.736     232.152
  O      866.839     940.974     232.988
  O      865.938     940.790     230.578
  H      867.689     941.112     232.537
  H      863.424     936.907     235.767
  H      864.569     933.420     233.801
  H      866.722     936.120     231.402
  H      864.847     937.733     231.714
  H      861.700     936.909     233.272
  H      864.022     938.563     234.426
  H      862.402     940.329     234.743
  H      861.130     939.823     232.248
  H      863.089     940.737     231.092
  H      862.758     941.693     232.563
  P      860.155     939.776     235.889
  C      857.659     939.828     235.054
  O      858.822     940.553     235.425
  O      861.215     940.931     236.152
  O      859.981     938.798     237.005
  H      861.563     941.325     235.333
  H      856.884     940.513     234.779
  H      857.331     939.232     235.880
  H      857.885     939.192     234.223

 6  7  8  9  10  11  12  13  14  15  16  27  31  32  33  34  35 0
 6-311+G(2d,p)
 ****
 36  37 0
 6-311+G(2d,p)
 ****
 1  2  3  4  5  17  18  19  20  21  22  23  24  25 0
 3-21G
 ****
 26  28  29  30  38  39  40  41  42  43  44  45 0
 3-21G
 ****


