%nproc=1
%NoSave
%Mem=1900MB
#P OB98/GEN NMR

erre ene a

0 1
  C      362.531    -377.309      -3.977
  O      363.178    -378.512      -4.353
  P      364.579    -378.910      -3.685
  C      364.047    -381.346      -3.051
  O      364.798    -380.481      -3.902
  C      364.059    -382.773      -3.596
  O      363.283    -382.849      -4.817
  C      365.443    -383.293      -3.958
  O      366.168    -383.650      -2.794
  C      365.099    -384.447      -4.883
  O      364.749    -385.618      -4.120
  C      363.854    -383.905      -5.619
  N      362.516    -384.091     -10.542
  C      362.127    -384.825      -9.469
  N      362.564    -384.742      -8.194
  C      363.507    -383.796      -8.085
  C      364.034    -382.994      -9.084
  C      363.476    -383.161     -10.374
  N      363.817    -382.370     -11.455
  N      365.018    -382.168      -8.583
  C      365.092    -382.474      -7.300
  N      364.164    -383.406      -6.940
  O      364.773    -378.430      -2.279
  O      365.661    -378.255      -4.665
  H      365.582    -385.988      -3.756
  H      366.199    -377.606      -4.170
  H      361.358    -385.576      -9.669
  H      365.792    -382.038      -6.598
  H      363.084    -384.669      -5.727
  H      365.926    -384.725      -5.546
  H      365.993    -382.528      -4.530
  H      363.578    -383.425      -2.852
  H      363.022    -380.972      -2.995
  H      363.251    -382.473     -12.280
  H      364.294    -381.489     -11.278
  H      364.480    -381.318      -2.042
  P      367.605    -384.330      -2.930
  C      368.884    -383.239      -0.977
  O      368.229    -384.412      -1.455
  O      368.512    -383.738      -3.966
  O      367.282    -385.862      -3.261
  H      367.982    -386.234      -3.831
  H      369.878    -383.168      -1.426
  H      368.979    -383.307       0.108
  H      368.306    -382.342      -1.227
  H      361.616    -377.211      -4.522
  H      363.168    -376.478      -4.197
  H      362.321    -377.330      -2.928

 3  4  5  6  7  8  9  10  11  12  22  25  29  30  31  32 0
 6-311+G(2d,p)
 ****
 33  36  37 0
 6-311+G(2d,p)
 ****
 1  2  13  14  15  16  17  18  19  20  21  23  24  26 0
 3-21G
 ****
 27  28  34  35  38  39  40  41  42  43  44  45  46  47  48 0
 3-21G
 ****


