%nproc=1
%NoSave
%Mem=1900MB
#P OB98/GEN NMR

erre ene a

0 1
  C     -166.442      57.720    -321.176
  O     -167.551      58.066    -320.337
  P     -168.136      59.558    -320.512
  C     -170.087      58.753    -322.031
  O     -168.958      59.607    -321.899
  C     -170.745      58.890    -323.411
  O     -171.352      60.195    -323.523
  C     -169.776      58.743    -324.594
  O     -170.452      58.055    -325.656
  C     -169.554      60.172    -325.050
  O     -169.128      60.249    -326.406
  C     -170.935      60.763    -324.777
  N     -170.454      65.066    -327.398
  C     -170.527      63.763    -327.845
  N     -170.428      63.582    -329.182
  N     -170.672      62.734    -327.059
  C     -170.791      63.070    -325.755
  C     -170.747      64.319    -325.181
  C     -170.538      65.450    -326.061
  O     -170.423      66.619    -325.720
  N     -170.899      64.255    -323.815
  C     -171.027      62.967    -323.558
  N     -170.957      62.203    -324.702
  O     -166.828      60.426    -320.809
  O     -168.868      60.059    -319.321
  H     -168.803      61.155    -326.556
  H     -166.753      61.146    -320.159
  H     -170.317      65.823    -328.041
  H     -171.149      62.536    -322.578
  H     -171.660      60.453    -325.546
  H     -168.785      60.637    -324.424
  H     -170.371      64.336    -329.846
  H     -168.838      58.228    -324.354
  H     -170.519      62.634    -329.532
  H     -171.541      58.147    -323.483
  H     -170.824      59.005    -321.265
  H     -169.763      57.722    -321.867
  P     -170.283      56.457    -325.700
  C     -172.836      56.012    -325.949
  O     -171.669      55.856    -325.163
  O     -169.256      56.162    -324.509
  O     -169.801      55.928    -327.007
  H     -168.757      55.346    -324.683
  H     -172.613      56.373    -326.955
  H     -173.506      56.728    -325.459
  H     -173.342      55.044    -326.026
  H     -166.141      56.713    -320.973
  H     -165.625      58.383    -320.979
  H     -166.731      57.806    -322.203

 3  4  5  6  7  8  9  10  11  12  23  26  30  31  33  0
 6-311+G(2d,p)
 ****
 35  36  37  38 0
 6-311+G(2d,p)
 ****
 1  2  13  14  15  16  17  18  19  20  21  22  24  25  27  28  29 0
 3-21G
 ****
 32  34  39  40  41  42  43  44  45  46  47  48  49 0
 3-21G
 ****


