%nproc=1
%NoSave
%Mem=1900MB
#P OB98/GEN NMR

erre ene a

0 1
  C       -7.360      49.132     -92.707
  O       -8.375      50.082     -92.966
  H       -7.073      48.659     -93.650
  H       -7.734      48.362     -92.027
  H       -6.483      49.619     -92.272
  P       -8.823      51.014     -91.744
  C      -10.602      50.836     -89.821
  O      -10.016      50.255     -90.979
  C      -12.087      50.486     -89.759
  O      -12.306      49.088     -90.033
  C      -12.711      50.689     -88.388
  O      -12.860      52.049     -88.051
  C      -14.027      49.949     -88.572
  O      -14.974      50.748     -89.294
  C      -13.577      48.734     -89.422
  N      -13.477      47.512     -88.638
  C      -14.685      46.849     -88.386
  O      -15.743      47.299     -88.826
  N      -14.663      45.713     -87.617
  C      -13.537      45.262     -87.162
  N      -13.585      44.137     -86.400
  C      -12.240      45.913     -87.426
  C      -12.284      47.024     -88.158
  O       -9.581      52.214     -92.479
  O       -7.721      51.444     -90.833
  H      -14.532      51.016     -90.123
  H      -10.285      51.920     -93.080
  H      -11.324      45.496     -87.034
  H      -11.378      47.565     -88.398
  H      -14.283      48.555     -90.243
  H      -14.490      49.691     -87.619
  H      -12.129      50.155     -87.626
  H      -12.607      51.072     -90.528
  H      -14.495      43.729     -86.222
  H      -10.460      51.920     -89.813
  H      -12.779      43.714     -85.966
  H      -10.082      50.428     -88.948
  P      -12.863      52.513     -86.516
  C      -14.305      51.984     -84.451
  O      -14.208      51.919     -85.870
  O      -12.661      53.974     -86.295
  O      -11.733      51.593     -85.851
  H      -11.898      50.635     -85.917
  H      -15.237      51.562     -84.137
  H      -14.252      53.005     -84.136
  H      -13.499      51.434     -84.013

 6  7  8  9  10  11  12  13  14  15  16  26  30  31  32  33  35 0
 6-311+G(2d,p)
 ****
 37  38 0
 6-311+G(2d,p)
 ****
 1  2  3  4  5  17  18  19  20  21  22  23  24  25 0
 3-21G
 ****
 27  28  29  34  36  39  40  41  42  43  44  45  46 0
 3-21G
 ****


