%nproc=1
%NoSave
%Mem=1900MB
#P OB98/GEN NMR

erre ene a

0 1
  C      -14.072     118.178      69.563
  O      -15.258     117.534      69.987
  H      -14.315     118.925      68.804
  H      -13.620     118.681      70.419
  H      -13.359     117.453      69.161
  P      -15.930     116.486      68.974
  C      -15.086     114.170      69.786
  O      -14.916     115.244      68.872
  C      -13.820     113.313      69.843
  O      -13.698     112.588      68.585
  C      -12.526     114.107      70.057
  O      -11.672     113.355      70.925
  C      -11.907     114.146      68.671
  O      -10.491     114.309      68.701
  C      -12.357     112.804      68.106
  N       -9.228     112.484      64.108
  C       -9.059     112.177      65.414
  N       -9.967     112.244      66.407
  C      -11.172     112.608      65.931
  C      -11.496     112.948      64.627
  C      -10.450     112.891      63.691
  N      -10.588     113.265      62.374
  N      -12.823     113.327      64.548
  C      -13.280     113.244      65.778
  N      -12.316     112.816      66.653
  O      -15.762     117.224      67.558
  O      -17.352     116.137      69.254
  H      -10.080     113.435      68.866
  H      -16.525     117.813      67.407
  H       -8.063     111.847      65.699
  H      -14.277     113.510      66.101
  H      -11.730     111.969      68.445
  H      -12.337     114.980      68.101
  H      -12.683     115.110      70.473
  H      -13.950     112.559      70.631
  H      -15.922     113.550      69.454
  H       -9.761     113.293      61.802
  H      -11.464     113.674      62.074
  H      -15.314     114.572      70.778
  P      -11.071     114.111      72.204
  C      -12.665     112.956      73.911
  O      -12.200     114.177      73.340
  O      -10.956     115.631      71.710
  O       -9.749     113.581      72.659
  H      -10.189     116.066      72.134
  H      -13.411     113.168      74.648
  H      -11.846     112.442      74.370
  H      -13.086     112.341      73.143

 6  7  8  9  10  11  12  13  14  15  25  28  32  33  34  35 0
 6-311+G(2d,p)
 ****
 36  39  40 0
 6-311+G(2d,p)
 ****
 1  2  3  4  5  16  17  18  19  20  21  22  23  24 0
 3-21G
 ****
 26  27  29  30  31  37  38  41  42  43  44  45  46  47 0
 3-21G
 ****
 48 0
 3-21G
 ****


