%nproc=1
%NoSave
%Mem=1900MB
#P OB98/GEN NMR

erre ene a

0 1
  C      318.895     105.400     136.642
  O      319.215     104.668     137.807
  H      319.822     105.623     136.105
  H      318.411     106.343     136.909
  H      318.242     104.821     135.985
  P      318.021     104.068     138.692
  C      318.545     101.645     137.989
  O      317.580     102.689     138.006
  C      318.161     100.566     138.998
  O      316.887      99.984     138.637
  C      319.140      99.401     139.056
  O      320.324      99.747     139.747
  C      318.285      98.342     139.729
  O      318.269      98.517     141.150
  C      316.888      98.624     139.130
  N      316.547      97.679     138.067
  C      315.934      96.498     138.468
  O      315.668      96.236     139.642
  N      315.685      95.588     137.478
  C      316.108      95.688     136.184
  O      316.085      94.749     135.393
  C      316.696      96.982     135.802
  C      316.897      97.899     136.750
  O      316.906     105.012     138.999
  O      318.755     103.580     140.032
  H      318.600     104.235     140.739
  H      317.829      97.720     141.514
  H      315.277      94.710     137.769
  H      316.981      97.128     134.766
  H      317.358      98.849     136.499
  H      316.119      98.567     139.909
  H      318.652      97.335     139.521
  H      319.380      99.069     138.038
  H      318.056     101.036     139.986
  H      319.521     102.066     138.259
  H      318.602     101.231     136.978
  P      321.750      99.607     139.033
  C      322.347     102.029     138.411
  O      321.879     100.768     137.937
  O      322.080      98.239     138.534
  O      322.794     100.066     140.158
  H      323.497      99.390     140.230
  H      322.392     102.722     137.597
  H      323.323     101.911     138.834
  H      321.677     102.400     139.158

 6  7  8  9  10  11  12  13  14  15  16  27  31  32  33  34  35 0
 6-311+G(2d,p)
 ****
 36  37 0
 6-311+G(2d,p)
 ****
 1  2  3  4  5  17  18  19  20  21  22  23  24  25 0
 3-21G
 ****
 26  28  29  30  38  39  40  41  42  43  44  45 0
 3-21G
 ****


