%nproc=1
%NoSave
%Mem=1900MB
#P OB98/GEN NMR

erre ene a

0 1
  C     -844.140     217.875    -893.880
  O     -843.654     218.513    -892.690
  P     -844.596     219.486    -891.830
  C     -842.774     221.285    -891.470
  O     -844.034     220.956    -892.070
  C     -842.306     222.660    -891.900
  O     -841.919     222.605    -893.300
  C     -843.369     223.782    -891.830
  O     -843.523     224.370    -890.540
  C     -842.788     224.792    -892.790
  O     -841.712     225.525    -892.120
  C     -842.192     223.921    -893.890
  N     -843.482     225.595    -898.570
  C     -842.481     225.948    -897.700
  N     -842.220     225.476    -896.470
  C     -843.074     224.488    -896.160
  C     -844.129     223.992    -896.910
  C     -844.342     224.611    -898.180
  N     -845.358     224.220    -899.050
  N     -844.832     223.022    -896.250
  C     -844.178     222.883    -895.130
  N     -843.115     223.736    -895.030
  O     -844.737     219.092    -890.390
  O     -845.996     219.479    -892.610
  H     -841.445     226.231    -892.740
  H     -846.711     219.817    -892.030
  H     -841.828     226.728    -898.060
  H     -844.431     222.168    -894.350
  H     -841.246     224.289    -894.280
  H     -843.519     225.536    -893.130
  H     -844.344     223.418    -892.230
  H     -841.432     222.943    -891.290
  H     -842.034     220.529    -891.800
  H     -845.304     224.621    -900.000
  H     -845.859     223.393    -898.850
  H     -842.862     221.209    -890.370
  P     -844.781     225.347    -890.310
  C     -843.297     227.402    -889.620
  O     -844.211     226.815    -890.530
  O     -845.527     225.113    -889.070
  O     -845.655     225.117    -891.650
  H     -845.260     225.396    -892.490
  H     -842.908     228.336    -890.000
  H     -842.460     226.720    -889.420
  H     -843.817     227.614    -888.650
  H     -843.364     217.272    -894.304
  H     -844.439     218.620    -894.587
  H     -844.979     217.257    -893.636

 3  4  5  6  7  8  9  10  11  12  22  25  29  30  31  32 0
 6-311+G(2d,p)
 ****
 33  36  37 0
 6-311+G(2d,p)
 ****
 1  2  13  14  15  16  17  18  19  20  21  23  24  26 0
 3-21G
 ****
 27  28  34  35  38  39  40  41  42  43  44  45  46  47  48 0
 3-21G
 ****


