%nproc=1
%NoSave
%Mem=1900MB
#P OB98/GEN NMR

erre ene a

0 1
  C      -91.678      73.998      46.419
  O      -91.392      72.699      45.884
  P      -90.505      71.605      46.654
  C      -89.157      70.627      44.685
  O      -90.168      70.394      45.655
  C      -88.589      69.317      44.127
  O      -88.507      68.315      45.186
  C      -89.414      68.704      42.981
  O      -88.475      68.161      42.047
  C      -90.185      67.607      43.700
  O      -90.709      66.618      42.834
  C      -89.098      67.110      44.657
  N      -89.562      66.245      45.737
  C      -89.661      64.873      45.476
  O      -89.423      64.414      44.361
  N      -90.053      64.038      46.495
  C      -90.329      64.523      47.664
  N      -90.702      63.640      48.629
  C      -90.258      65.959      47.977
  C      -89.869      66.752      46.980
  O      -91.100      71.155      47.949
  O      -89.085      72.303      46.901
  H      -88.729      72.010      47.761
  H      -90.965      65.849      43.375
  H      -90.490      66.322      48.968
  H      -89.763      67.821      47.139
  H      -88.318      66.595      44.085
  H      -91.025      68.062      44.234
  H      -90.049      69.428      42.462
  H      -87.561      69.508      43.796
  H      -90.730      62.658      48.379
  H      -88.346      71.190      45.158
  H      -90.932      63.906      49.575
  H      -89.572      71.239      43.876
  P      -88.327      68.824      40.594
  C      -89.109      66.938      38.976
  O      -88.029      67.644      39.551
  O      -86.893      69.536      40.702
  O      -89.371      69.823      40.214
  H      -86.858      70.280      40.074
  H      -88.921      66.821      37.906
  H      -90.062      67.455      39.109
  H      -89.172      65.948      39.435
  H      -92.284      74.544      45.726
  H      -90.762      74.525      46.584
  H      -92.202      73.894      47.346

 3  4  5  6  7  8  9  10  11  12  13  24  27  28  29  30  32 0
 6-311+G(2d,p)
 ****
 34  35 0
 6-311+G(2d,p)
 ****
 1  2  14  15  16  17  18  19  20  21  22  23  25  26 0
 3-21G
 ****
 31  33  36  37  38  39  40  41  42  43  44  45  46 0
 3-21G
 ****


