%nproc=1
%NoSave
%Mem=1900MB
#P OB98/GEN NMR

erre ene a

0 1
  C      111.659     -25.122     380.850
  O      111.395     -26.446     381.338
  P      112.452     -27.622     381.065
  C      111.098     -28.803     379.168
  O      112.287     -28.122     379.549
  C      111.321     -29.552     377.842
  O      112.279     -30.629     378.037
  C      110.079     -30.235     377.288
  O      109.202     -29.312     376.646
  C      110.686     -31.235     376.308
  O      111.001     -30.609     375.054
  C      111.982     -31.651     377.053
  N      111.886     -32.972     377.667
  C      112.223     -34.049     376.852
  O      112.530     -33.941     375.667
  N      112.163     -35.287     377.452
  C      111.739     -35.545     378.729
  O      111.693     -36.677     379.202
  C      111.315     -34.376     379.502
  C      111.400     -33.158     378.949
  O      111.829     -28.844     381.894
  O      113.861     -27.346     381.505
  H      111.468     -29.776     375.273
  H      112.540     -29.439     382.170
  H      112.424     -36.091     376.888
  H      110.952     -34.536     380.509
  H      111.087     -32.282     379.512
  H      112.837     -31.643     376.360
  H      110.022     -32.073     376.101
  H      109.565     -30.789     378.091
  H      111.745     -28.854     377.109
  H      110.287     -28.077     379.021
  H      110.809     -29.508     379.963
  P      107.925     -28.827     377.526
  C      106.189     -29.710     375.788
  O      106.731     -29.797     377.090
  O      107.609     -27.419     376.810
  O      108.208     -28.752     378.985
  H      107.801     -27.433     375.867
  H      106.944     -29.438     375.045
  H      105.370     -28.966     375.781
  H      105.763     -30.698     375.516
  H      110.853     -24.474     381.123
  H      111.752     -25.147     379.784
  H      112.569     -24.759     381.279

 3  4  5  6  7  8  9  10  11  12  13  23  28  29  30  31  32 0
 6-311+G(2d,p)
 ****
 33  34 0
 6-311+G(2d,p)
 ****
 1  2  14  15  16  17  18  19  20  21  22  24  25  26 0
 3-21G
 ****
 27  35  36  37  38  39  40  41  42  43  44  45 0
 3-21G
 ****


