%nproc=1
%NoSave
%Mem=1900MB
#P OB98/GEN NMR

erre ene a

0 1
  C     1149.700     424.401    1137.253
  O     1149.908     423.257    1136.445
  H     1150.663     424.812    1137.564
  H     1149.161     425.159    1136.666
  H     1149.097     424.151    1138.129
  P     1150.401     421.918    1137.170
  C     1152.886     422.552    1136.739
  O     1151.857     421.580    1136.569
  C     1154.242     421.966    1136.327
  O     1154.606     420.930    1137.303
  C     1154.268     421.318    1134.925
  O     1155.524     421.626    1134.315
  C     1154.204     419.838    1135.226
  O     1154.781     419.038    1134.196
  C     1154.972     419.758    1136.543
  N     1155.942     414.768    1136.837
  C     1156.595     415.781    1136.220
  N     1156.298     417.095    1136.242
  C     1155.238     417.334    1137.031
  C     1154.484     416.422    1137.732
  C     1154.852     415.067    1137.592
  N     1154.148     414.027    1138.162
  N     1153.434     417.042    1138.406
  C     1153.560     418.329    1138.090
  N     1154.635     418.552    1137.264
  O     1149.456     420.803    1136.511
  O     1150.307     421.924    1138.661
  H     1154.777     418.107    1134.489
  H     1148.635     420.739    1137.017
  H     1157.467     415.493    1135.640
  H     1152.885     419.114    1138.400
  H     1156.060     419.766    1136.403
  H     1153.159     419.535    1135.370
  H     1153.447     421.661    1134.271
  H     1154.992     422.752    1136.403
  H     1152.917     422.853    1137.784
  H     1154.442     413.087    1137.914
  H     1153.280     414.228    1138.632
  H     1152.653     423.435    1136.117
  P     1155.653     423.014    1133.518
  C     1154.920     421.823    1131.309
  O     1155.852     422.695    1131.959
  O     1157.085     423.576    1133.968
  O     1154.543     423.995    1133.839
  H     1157.072     424.537    1134.005
  H     1155.191     421.714    1130.280
  H     1153.936     422.238    1131.377
  H     1154.936     420.865    1131.785

 6  7  8  9  10  11  12  13  14  15  25  28  32  33  34  35 0
 6-311+G(2d,p)
 ****
 36  39  40 0
 6-311+G(2d,p)
 ****
 1  2  3  4  5  16  17  18  19  20  21  22  23  24 0
 3-21G
 ****
 26  27  29  30  31  37  38  41  42  43  44  45  46  47 0
 3-21G
 ****
 48 0
 3-21G
 ****


