%nproc=1
%NoSave
%Mem=1900MB
#P OB98/GEN NMR

erre ene a

0 1
  C     -504.708    -436.516     611.692
  O     -504.453    -435.200     612.192
  P     -503.691    -435.048     613.586
  C     -501.849    -433.293     612.821
  O     -502.951    -433.628     613.652
  C     -501.536    -431.797     612.989
  O     -502.568    -430.991     612.381
  C     -501.421    -431.366     614.454
  O     -500.117    -431.568     614.964
  C     -501.823    -429.902     614.372
  O     -500.726    -429.111     613.879
  C     -502.969    -429.967     613.332
  N     -504.333    -430.262     613.812
  C     -504.923    -429.455     614.792
  O     -504.375    -428.476     615.299
  N     -506.199    -429.789     615.163
  C     -506.992    -430.728     614.566
  O     -508.149    -430.942     614.899
  C     -506.381    -431.449     613.434
  C     -505.099    -431.203     613.134
  O     -502.502    -436.099     613.493
  O     -504.559    -435.284     614.786
  H     -501.072    -428.223     613.706
  H     -502.609    -436.805     614.151
  H     -506.613    -429.266     615.917
  H     -506.985    -432.168     612.906
  H     -504.639    -431.727     612.295
  H     -503.033    -429.017     612.780
  H     -502.068    -429.509     615.353
  H     -502.171    -431.890     615.053
  H     -500.595    -431.591     612.461
  H     -502.083    -433.518     611.781
  H     -500.986    -433.905     613.104
  P     -499.733    -432.973     615.628
  C     -497.296    -432.191     615.419
  O     -498.273    -432.772     616.262
  O     -499.900    -434.179     614.748
  O     -500.673    -433.053     616.931
  H     -501.490    -433.567     616.733
  H     -496.410    -431.965     616.011
  H     -497.678    -431.262     614.985
  H     -497.019    -432.887     614.627
  H     -505.222    -436.449     610.756
  H     -505.312    -437.053     612.393
  H     -503.780    -437.031     611.553

 3  4  5  6  7  8  9  10  11  12  13  23  28  29  30  31  32 0
 6-311+G(2d,p)
 ****
 33  34 0
 6-311+G(2d,p)
 ****
 1  2  14  15  16  17  18  19  20  21  22  24  25  26  27 0
 3-21G
 ****
 35  36  37  38  39  40  41  42  43  44  45 0
 3-21G
 ****


