%nproc=1
%NoSave
%Mem=1900MB
#P OB98/GEN NMR

erre ene a

0 1
  C      383.196    -964.489     196.968
  O      384.061    -963.370     196.995
  H      383.803    -965.395     196.853
  H      382.509    -964.416     196.121
  H      382.632    -964.568     197.900
  P      383.445    -961.929     197.343
  C      385.439    -960.832     198.568
  O      384.677    -960.899     197.369
  C      386.509    -959.729     198.475
  O      387.611    -960.232     197.649
  C      386.008    -958.424     197.823
  O      386.774    -957.355     198.395
  C      386.410    -958.661     196.368
  O      386.313    -957.493     195.583
  C      387.794    -959.274     196.588
  N      388.387    -959.912     195.415
  C      389.774    -959.966     195.329
  O      390.546    -959.503     196.184
  N      390.280    -960.561     194.210
  C      389.556    -961.121     193.195
  O      390.073    -961.672     192.227
  C      388.101    -961.024     193.329
  C      387.587    -960.447     194.418
  O      382.550    -961.876     198.529
  O      382.678    -961.517     195.997
  H      381.713    -961.658     196.113
  H      385.444    -957.073     195.752
  H      391.287    -960.617     194.136
  H      387.496    -961.448     192.543
  H      386.512    -960.377     194.562
  H      388.490    -958.513     196.958
  H      385.727    -959.381     195.912
  H      384.947    -958.243     197.975
  H      386.911    -959.546     199.468
  H      385.921    -961.804     198.729
  H      384.768    -960.626     199.409
  P      386.179    -955.882     198.644
  C      386.756    -955.598     201.154
  O      387.030    -955.179     199.808
  O      384.700    -955.851     198.868
  O      386.574    -955.047     197.322
  H      385.935    -954.320     197.208
  H      387.385    -955.058     201.831
  H      386.949    -956.646     201.247
  H      385.730    -955.402     201.387

 6  7  8  9  10  11  12  13  14  15  16  27  31  32  33  34  35 0
 6-311+G(2d,p)
 ****
 36  37 0
 6-311+G(2d,p)
 ****
 1  2  3  4  5  17  18  19  20  21  22  23  24  25 0
 3-21G
 ****
 26  28  29  30  38  39  40  41  42  43  44  45 0
 3-21G
 ****


