%nproc=1
%NoSave
%Mem=1900MB
#P OB98/GEN NMR

erre ene a

0 1
  C     -301.833    -460.785     104.626
  O     -302.470    -461.917     105.181
  H     -302.440    -459.901     104.846
  H     -301.758    -460.893     103.542
  H     -300.838    -460.645     105.060
  P     -301.723    -463.334     105.125
  C     -303.401    -464.204     103.364
  O     -302.035    -463.984     103.688
  C     -303.532    -464.960     102.037
  O     -302.920    -464.159     100.989
  C     -302.851    -466.332     102.042
  O     -303.640    -467.245     101.281
  C     -301.531    -466.073     101.332
  O     -301.012    -467.248     100.711
  C     -301.917    -464.976     100.343
  N     -298.751    -463.841      96.565
  C     -299.874    -464.652      96.581
  N     -300.190    -465.267      95.414
  N     -300.615    -464.845      97.639
  C     -300.197    -464.151      98.725
  C     -299.105    -463.316      98.838
  C     -298.277    -463.133      97.660
  O     -297.263    -462.437      97.596
  N     -298.993    -462.808     100.109
  C     -300.016    -463.334     100.761
  N     -300.770    -464.164      99.967
  O     -301.996    -464.240     106.287
  O     -300.173    -462.960     105.029
  H     -301.638    -467.499     100.001
  H     -299.719    -463.116     105.875
  H     -298.211    -463.738      95.725
  H     -300.256    -463.151     101.801
  H     -302.339    -465.379      99.415
  H     -300.792    -465.709     102.055
  H     -299.674    -465.142      94.558
  H     -302.712    -466.722     103.051
  H     -301.026    -465.841      95.395
  H     -304.598    -465.047     101.791
  H     -303.897    -463.226     103.285
  H     -303.878    -464.774     104.172
  P     -304.462    -468.392     102.043
  C     -302.658    -470.225     102.141
  O     -303.436    -469.297     102.887
  O     -305.430    -469.157     101.204
  O     -305.231    -467.572     103.193
  H     -306.106    -467.983     103.350
  H     -302.017    -470.767     102.804
  H     -302.065    -469.698     101.423
  H     -303.307    -470.908     101.634

 6  7  8  9  10  11  12  13  14  15  26  29  33  34 0
 6-311+G(2d,p)
 ****
 36  38  39  40  41 0
 6-311+G(2d,p)
 ****
 1  2  3  4  5  16  17  18  19  20  21  22  23  24  25 0
 3-21G
 ****
 27  28  30  31  32  35  37  42  43  44  45  46  47 0
 3-21G
 ****
 48  49 0
 3-21G
 ****


