%nproc=1
%NoSave
%Mem=1900MB
#P OB98/GEN NMR

erre ene a

0 1
  C       24.656     -80.884    -349.410
  O       24.049     -80.161    -350.474
  P       22.619     -79.482    -350.211
  C       21.412     -81.768    -350.408
  O       21.661     -80.619    -349.607
  C       19.914     -82.054    -350.516
  O       19.392     -82.315    -349.181
  C       19.087     -80.909    -351.109
  O       17.993     -81.504    -351.831
  C       18.535     -80.206    -349.882
  O       17.380     -79.420    -350.177
  C       18.287     -81.404    -348.972
  N       15.181     -79.905    -345.184
  C       14.938     -80.237    -346.472
  N       15.818     -80.626    -347.419
  C       17.064     -80.658    -346.920
  C       17.474     -80.312    -345.644
  C       16.465     -79.924    -344.742
  N       16.708     -79.599    -343.428
  N       18.842     -80.449    -345.518
  C       19.255     -80.862    -346.698
  N       18.213     -81.027    -347.569
  O       22.057     -79.261    -351.692
  O       22.655     -78.197    -349.447
  H       17.373     -78.655    -349.571
  H       22.027     -78.304    -351.897
  H       13.892     -80.186    -346.778
  H       20.285     -81.053    -346.973
  H       17.357     -81.935    -349.224
  H       19.300     -79.538    -349.461
  H       19.653     -80.236    -351.765
  H       19.779     -82.974    -351.099
  H       21.901     -82.631    -349.949
  H       15.921     -79.463    -342.815
  H       17.626     -79.793    -343.042
  H       21.839     -81.615    -351.409
  P       17.869     -81.136    -353.386
  C       15.672     -79.836    -352.909
  O       16.966     -79.814    -353.477
  O       16.916     -82.283    -353.964
  O       19.179     -81.081    -354.113
  H       17.102     -82.431    -354.914
  H       15.438     -78.843    -352.516
  H       15.595     -80.568    -352.096
  H       14.946     -80.096    -353.693
  H       25.597     -81.275    -349.736
  H       24.017     -81.691    -349.117
  H       24.810     -80.230    -348.577

 3  4  5  6  7  8  9  10  11  12  22  25  29  30  31  32 0
 6-311+G(2d,p)
 ****
 33  36  37 0
 6-311+G(2d,p)
 ****
 1  2  13  14  15  16  17  18  19  20  21  23  24  26 0
 3-21G
 ****
 27  28  34  35  38  39  40  41  42  43  44  45  46  47  48 0
 3-21G
 ****


