%nproc=1
%NoSave
%Mem=1900MB
#P OB98/GEN NMR

erre ene a

0 1
  C       83.381     -20.853     377.074
  O       83.514     -19.522     377.528
  H       84.213     -21.457     377.447
  H       82.443     -21.267     377.457
  H       83.361     -20.885     375.979
  P       84.740     -18.672     376.936
  C       83.503     -18.664     374.648
  O       84.156     -17.900     375.650
  C       83.021     -17.754     373.513
  O       82.027     -16.836     374.042
  C       84.140     -16.917     372.882
  O       83.917     -16.836     371.472
  C       83.958     -15.549     373.514
  O       84.484     -14.506     372.702
  C       82.442     -15.497     373.698
  N       79.377     -11.572     374.832
  C       79.463     -12.365     373.744
  N       80.306     -13.398     373.521
  C       81.089     -13.610     374.599
  C       81.116     -12.884     375.780
  C       80.211     -11.811     375.878
  N       80.144     -10.979     376.970
  N       82.084     -13.387     376.634
  C       82.624     -14.396     375.977
  N       82.061     -14.562     374.741
  O       85.667     -19.814     376.296
  O       85.482     -17.831     377.918
  H       84.257     -14.697     371.768
  H       86.187     -20.243     377.006
  H       78.772     -12.137     372.939
  H       83.428     -15.020     376.344
  H       81.916     -15.197     372.781
  H       84.469     -15.520     374.487
  H       85.133     -17.330     373.067
  H       82.509     -18.373     372.761
  H       82.646     -19.183     375.092
  H       79.501     -10.196     376.928
  H       80.795     -11.100     377.729
  H       84.203     -19.410     374.250
  P       84.937     -17.637     370.527
  C       83.924     -20.028     370.565
  O       84.143     -18.841     369.816
  O       85.898     -18.385     371.573
  O       85.717     -16.759     369.603
  H       86.830     -18.228     371.335
  H       83.388     -20.734     369.966
  H       83.354     -19.797     371.441
  H       84.866     -20.447     370.853

 6  7  8  9  10  11  12  13  14  15  25  28  32  33  34  35 0
 6-311+G(2d,p)
 ****
 36  39  40 0
 6-311+G(2d,p)
 ****
 1  2  3  4  5  16  17  18  19  20  21  22  23  24 0
 3-21G
 ****
 26  27  29  30  31  37  38  41  42  43  44  45  46  47 0
 3-21G
 ****
 48 0
 3-21G
 ****


