%nproc=1
%NoSave
%Mem=1900MB
#P OB98/GEN NMR

erre ene a

0 1
  C     -453.158    -225.602     112.340
  O     -454.389    -224.980     112.666
  H     -452.392    -224.832     112.242
  H     -453.248    -226.143     111.394
  H     -452.866    -226.291     113.137
  P     -455.663    -225.946     112.825
  C     -456.395    -224.892     110.573
  O     -456.784    -225.284     111.887
  C     -457.353    -223.835     110.026
  O     -458.714    -224.304     110.084
  C     -457.320    -222.512     110.789
  O     -456.252    -221.702     110.326
  C     -458.669    -221.924     110.394
  O     -458.576    -221.318     109.091
  C     -459.576    -223.165     110.330
  N     -464.330    -223.594     112.222
  C     -463.883    -223.154     111.030
  N     -462.600    -223.013     110.613
  C     -461.740    -223.395     111.577
  C     -462.062    -223.868     112.843
  C     -463.426    -223.971     113.157
  N     -463.886    -224.413     114.384
  N     -460.912    -224.159     113.557
  C     -459.929    -223.925     112.712
  N     -460.372    -223.428     111.514
  O     -456.072    -226.253     114.229
  O     -455.192    -227.214     111.965
  H     -458.250    -222.007     108.482
  H     -454.736    -226.923     111.156
  H     -464.640    -222.875     110.311
  H     -458.875    -224.118     112.920
  H     -460.284    -223.110     109.490
  H     -459.007    -221.145     111.081
  H     -457.298    -222.663     111.869
  H     -457.112    -223.679     108.964
  H     -456.390    -225.770     109.906
  H     -464.858    -224.272     114.585
  H     -463.204    -224.569     115.116
  H     -455.375    -224.502     110.633
  P     -455.044    -221.294     111.298
  C     -455.493    -218.910     110.449
  O     -454.503    -219.892     110.729
  O     -454.014    -222.359     111.491
  O     -455.758    -220.871     112.660
  H     -455.106    -220.869     113.396
  H     -455.022    -218.024     110.078
  H     -456.030    -218.680     111.345
  H     -456.172    -219.288     109.713

 6  7  8  9  10  11  12  13  14  15  25  28  32  33  34  35 0
 6-311+G(2d,p)
 ****
 36  39  40 0
 6-311+G(2d,p)
 ****
 1  2  3  4  5  16  17  18  19  20  21  22  23  24 0
 3-21G
 ****
 26  27  29  30  31  37  38  41  42  43  44  45  46  47 0
 3-21G
 ****
 48 0
 3-21G
 ****


