%nproc=1
%NoSave
%Mem=1900MB
#P OB98/GEN NMR

erre ene a

0 1
  C      119.447     564.081     -58.752
  O      119.824     562.719     -58.871
  P      121.353     562.310     -59.119
  C      121.730     561.812     -56.626
  O      122.132     562.595     -57.742
  C      122.931     561.461     -55.752
  O      123.946     560.839     -56.575
  C      123.566     562.675     -55.081
  O      124.033     562.301     -53.780
  C      124.778     562.991     -55.946
  O      125.794     563.674     -55.193
  C      125.166     561.593     -56.439
  N      129.207     563.360     -59.066
  C      128.852     563.494     -57.770
  N      127.751     563.018     -57.146
  C      127.005     562.293     -57.993
  C      127.242     562.067     -59.342
  C      128.404     562.639     -59.883
  N      128.775     562.489     -61.202
  N      126.236     561.296     -59.890
  C      125.416     561.052     -58.891
  N      125.841     561.621     -57.719
  O      121.983     562.923     -60.321
  O      121.338     560.714     -59.202
  H      125.404     564.523     -54.890
  H      121.966     560.406     -59.879
  H      129.541     564.062     -57.151
  H      124.502     560.479     -58.960
  H      125.806     561.072     -55.716
  H      124.477     563.641     -56.774
  H      122.882     563.531     -55.005
  H      122.617     560.727     -55.001
  H      121.273     560.885     -56.996
  H      129.680     562.831     -61.472
  H      128.273     561.813     -61.764
  H      120.975     562.359     -56.047
  P      123.885     563.422     -52.634
  C      121.940     562.614     -51.106
  O      122.341     563.379     -52.217
  O      124.446     564.739     -53.061
  O      124.670     562.726     -51.422
  H      124.673     561.750     -51.510
  H      120.855     562.679     -51.004
  H      122.400     563.004     -50.193
  H      122.221     561.563     -51.241
  H      118.391     564.146     -58.591
  H      119.703     564.602     -59.651
  H      119.962     564.523     -57.925

 3  4  5  6  7  8  9  10  11  12  22  25  29  30  31  32 0
 6-311+G(2d,p)
 ****
 33  36  37 0
 6-311+G(2d,p)
 ****
 1  2  13  14  15  16  17  18  19  20  21  23  24  26 0
 3-21G
 ****
 27  28  34  35  38  39  40  41  42  43  44  45  46  47  48 0
 3-21G
 ****


