%nproc=1
%NoSave
%Mem=1900MB
#P OB98/GEN NMR

erre ene a

0 1
  C      111.785     796.650     788.770
  O      110.866     796.921     787.735
  H      112.723     797.160     788.542
  H      111.977     795.570     788.826
  H      111.407     797.006     789.732
  P      109.350     796.426     787.892
  C      107.178     797.133     786.693
  O      108.421     797.557     787.244
  C      106.044     798.015     787.208
  O      105.887     797.832     788.643
  C      106.295     799.503     787.022
  O      106.085     799.891     785.661
  C      105.288     800.083     788.013
  O      103.969     800.135     787.452
  C      105.371     799.067     789.168
  N      106.181     799.564     790.281
  C      105.505     799.964     791.412
  O      104.275     799.921     791.526
  N      106.273     800.495     792.421
  C      107.600     800.784     792.332
  O      108.201     801.476     793.141
  C      108.291     800.275     791.135
  C      107.557     799.709     790.166
  O      108.954     795.977     789.262
  O      109.231     795.224     786.835
  H      109.286     794.370     787.308
  H      103.431     800.631     788.096
  H      105.779     800.836     793.227
  H      109.375     800.421     791.055
  H      108.037     799.351     789.253
  H      104.354     798.836     789.547
  H      105.579     801.103     788.296
  H      107.305     799.763     787.332
  H      105.103     797.689     786.722
  H      106.999     796.085     786.994
  H      107.238     797.167     785.596
  P      106.280     801.417     785.224
  C      106.529     802.760     783.036
  O      106.456     801.464     783.623
  O      107.335     802.162     785.999
  O      104.848     802.085     785.433
  H      104.941     802.895     785.954
  H      106.645     802.666     781.976
  H      107.367     803.288     783.441
  H      105.630     803.300     783.250

 6  7  8  9  10  11  12  13  14  15  16  27  31  32  33  34  35 0
 6-311+G(2d,p)
 ****
 36  37 0
 6-311+G(2d,p)
 ****
 1  2  3  4  5  17  18  19  20  21  22  23  24  25 0
 3-21G
 ****
 26  28  29  30  38  39  40  41  42  43  44  45 0
 3-21G
 ****


