%nproc=1
%NoSave
%Mem=1900MB
#P OB98/GEN NMR

erre ene a

0 1
  C      -57.745     -11.937     -64.037
  O      -56.855     -12.572     -63.120
  P      -56.948     -12.469     -61.530
  C      -56.408     -10.589     -59.768
  O      -56.184     -11.145     -61.060
  C      -56.307      -9.056     -59.804
  O      -54.920      -8.689     -60.098
  C      -57.184      -8.431     -60.894
  O      -57.864      -7.251     -60.470
  C      -56.223      -8.294     -62.065
  O      -56.653      -7.355     -63.042
  C      -54.904      -7.979     -61.359
  N      -50.393      -6.541     -63.271
  C      -51.357      -5.784     -62.637
  N      -51.102      -4.461     -62.511
  N      -52.483      -6.269     -62.190
  C      -52.651      -7.582     -62.452
  C      -51.772      -8.439     -63.082
  C      -50.507      -7.902     -63.533
  O      -49.609      -8.534     -64.077
  N      -52.282      -9.713     -63.159
  C      -53.473      -9.624     -62.594
  N      -53.740      -8.348     -62.142
  O      -56.647     -13.720     -60.775
  O      -58.498     -12.102     -61.263
  H      -56.000      -7.367     -63.772
  H      -58.731     -12.511     -60.405
  H      -49.532      -6.118     -63.577
  H      -54.169     -10.439     -62.472
  H      -54.798      -6.911     -61.148
  H      -56.168      -9.271     -62.562
  H      -50.312      -4.000     -62.942
  H      -57.999      -9.109     -61.175
  H      -51.898      -3.879     -62.251
  H      -56.556      -8.666     -58.809
  H      -55.626     -11.001     -59.122
  H      -57.371     -10.911     -59.375
  P      -59.311      -6.724     -60.898
  C      -60.396      -5.507     -62.872
  O      -59.213      -6.082     -62.360
  O      -59.580      -5.451     -59.961
  O      -60.410      -7.732     -60.734
  H      -60.367      -5.616     -59.400
  H      -60.276      -5.349     -63.952
  H      -60.573      -4.542     -62.396
  H      -61.258      -6.162     -62.707
  H      -57.453     -12.173     -65.039
  H      -57.707     -10.877     -63.895
  H      -58.742     -12.284     -63.865

 3  4  5  6  7  8  9  10  11  12  23  26  30  31 0
 6-311+G(2d,p)
 ****
 33  35  36  37  38 0
 6-311+G(2d,p)
 ****
 1  2  13  14  15  16  17  18  19  20  21  22  24  25 0
 3-21G
 ****
 27  28  29  32  34  39  40  41  42  43  44  45  46  47  48  49 0
 3-21G
 ****


