%nproc=1
%NoSave
%Mem=1900MB
#P OB98/GEN NMR

erre ene a

0 1
  C      875.426    -896.590    -756.980
  O      875.797    -895.400    -756.283
  P      876.135    -895.560    -754.714
  C      878.389    -894.320    -754.275
  O      877.748    -895.560    -754.550
  C      879.615    -894.500    -753.372
  O      879.189    -895.090    -752.117
  C      880.701    -895.420    -753.944
  O      881.981    -894.880    -753.576
  C      880.498    -896.720    -753.204
  O      881.699    -897.520    -753.197
  C      880.083    -896.190    -751.838
  N      879.815    -898.230    -747.212
  C      880.508    -897.120    -747.652
  N      881.264    -896.490    -746.718
  N      880.473    -896.690    -748.879
  C      879.645    -897.400    -749.678
  C      878.893    -898.500    -749.371
  C      878.980    -899.000    -748.016
  O      878.418    -900.000    -747.569
  N      878.183    -898.960    -750.447
  C      878.512    -898.130    -751.434
  N      879.409    -897.170    -751.010
  O      875.726    -897.070    -754.406
  O      875.414    -894.600    -753.838
  H      882.404    -896.970    -752.836
  H      875.076    -897.110    -753.687
  H      879.887    -898.540    -746.260
  H      878.161    -898.180    -752.443
  H      880.937    -895.800    -751.271
  H      879.715    -897.290    -753.691
  H      881.292    -896.740    -745.752
  H      880.660    -895.540    -755.039
  H      881.767    -895.650    -747.023
  H      880.016    -893.510    -753.146
  H      877.682    -893.650    -753.786
  H      878.678    -893.860    -755.223
  P      882.790    -894.060    -754.691
  C      882.972    -891.710    -753.574
  O      882.319    -892.530    -754.540
  O      882.086    -894.520    -756.060
  O      884.259    -894.290    -754.701
  H      882.718    -894.440    -756.809
  H      883.860    -892.180    -753.173
  H      882.286    -891.510    -752.750
  H      883.243    -890.760    -754.051
  H      875.228    -896.356    -758.005
  H      874.547    -897.006    -756.533
  H      876.225    -897.300    -756.924

 3  4  5  6  7  8  9  10  11  12  23  26  30  31  33  0
 6-311+G(2d,p)
 ****
 35  36  37  38 0
 6-311+G(2d,p)
 ****
 1  2  13  14  15  16  17  18  19  20  21  22  24  25  27  28  29 0
 3-21G
 ****
 32  34  39  40  41  42  43  44  45  46  47  48  49 0
 3-21G
 ****


