%nproc=1
%NoSave
%Mem=1900MB
#P OB98/GEN NMR

erre ene a

0 1
  C       79.146     268.647      60.502
  O       80.230     269.457      60.913
  H       79.290     268.377      59.452
  H       78.203     269.191      60.595
  H       79.107     267.730      61.096
  P       80.246     269.990      62.424
  C       78.622     271.497      63.750
  O       79.178     271.186      62.480
  C       77.609     272.628      63.614
  O       76.459     272.187      62.866
  C       77.084     273.154      64.948
  O       78.011     274.061      65.523
  C       75.796     273.818      64.495
  O       76.094     275.082      63.871
  C       75.283     272.815      63.447
  N       70.843     271.821      65.683
  C       71.414     273.033      65.345
  N       70.722     274.138      65.695
  N       72.570     273.150      64.742
  C       73.178     271.962      64.521
  C       72.719     270.698      64.824
  C       71.416     270.582      65.439
  O       70.866     269.525      65.740
  N       73.646     269.739      64.506
  C       74.648     270.417      63.978
  N       74.418     271.772      63.977
  O       81.588     270.352      62.985
  O       79.539     268.822      63.255
  H       75.276     275.371      63.423
  H       80.194     268.192      63.607
  H       69.960     271.800      66.163
  H       75.553     269.978      63.579
  H       74.735     273.305      62.634
  H       75.103     274.016      65.313
  H       69.992     274.113      66.396
  H       76.832     272.338      65.634
  H       71.146     275.036      65.501
  H       78.079     273.431      63.033
  H       79.444     271.795      64.406
  H       78.133     270.614      64.178
  P       77.963     274.412      67.090
  C       76.236     275.572      68.622
  O       76.577     275.190      67.297
  O       79.161     275.131      67.606
  O       77.687     273.014      67.806
  H       78.512     272.510      68.024
  H       75.294     276.079      68.616
  H       76.990     276.225      69.010
  H       76.168     274.700      69.238

 6  7  8  9  10  11  12  13  14  15  26  29  33  34 0
 6-311+G(2d,p)
 ****
 36  38  39  40  41 0
 6-311+G(2d,p)
 ****
 1  2  3  4  5  16  17  18  19  20  21  22  23  24  25 0
 3-21G
 ****
 27  28  30  31  32  35  37  42  43  44  45  46  47 0
 3-21G
 ****
 48  49 0
 3-21G
 ****


