%nproc=1
%NoSave
%Mem=1900MB
#P OB98/GEN NMR

erre ene a

0 1
  C       46.313      55.008    -108.296
  O       47.469      54.366    -108.839
  P       48.089      53.066    -108.132
  C       50.346      54.211    -107.738
  O       49.262      53.519    -107.127
  C       51.643      54.153    -106.920
  O       51.594      55.072    -105.799
  C       51.986      52.769    -106.351
  O       53.415      52.686    -106.351
  C       51.446      52.863    -104.935
  O       52.008      51.877    -104.072
  C       51.787      54.317    -104.587
  N       50.973      54.833    -103.489
  C       51.638      55.163    -102.306
  O       52.852      54.960    -102.199
  N       50.910      55.667    -101.255
  C       49.616      55.735    -101.343
  N       48.947      56.218    -100.260
  C       48.863      55.318    -102.544
  C       49.600      54.888    -103.573
  O       48.473      51.966    -109.074
  O       46.923      52.576    -107.144
  H       51.669      52.037    -103.162
  H       46.977      51.604    -107.042
  H       47.783      55.369    -102.563
  H       49.138      54.566    -104.496
  H       52.847      54.411    -104.304
  H       50.360      52.717    -104.939
  H       51.543      51.945    -106.918
  H       52.456      54.496    -107.571
  H       49.501      56.471     -99.447
  H       50.056      55.262    -107.875
  H       47.939      56.207    -100.180
  H       50.518      53.793    -108.738
  P       54.200      51.567    -107.183
  C       54.516      49.732    -105.420
  O       53.782      50.149    -106.560
  O       55.674      51.784    -107.296
  O       53.499      51.553    -108.628
  H       54.089      51.114    -109.265
  H       54.008      48.877    -104.968
  H       54.580      50.541    -104.684
  H       55.522      49.434    -105.722
  H       46.054      55.850    -108.904
  H       46.523      55.338    -107.300
  H       45.497      54.317    -108.278

 3  4  5  6  7  8  9  10  11  12  13  23  27  28  29  30  32 0
 6-311+G(2d,p)
 ****
 34  35 0
 6-311+G(2d,p)
 ****
 1  2  14  15  16  17  18  19  20  21  22  24  25  26 0
 3-21G
 ****
 31  33  36  37  38  39  40  41  42  43  44  45  46 0
 3-21G
 ****


