%nproc=1
%NoSave
%Mem=1900MB
#P OB98/GEN NMR

erre ene a

0 1
  C       46.159     -66.534     172.201
  O       47.508     -66.193     171.949
  H       45.522     -66.027     171.472
  H       45.876     -66.204     173.206
  H       46.005     -67.612     172.107
  P       48.627     -67.080     172.682
  C       49.650     -65.044     173.936
  O       49.004     -66.308     174.040
  C       49.796     -64.407     175.316
  O       50.281     -63.047     175.194
  C       48.498     -64.329     176.109
  O       48.229     -65.552     176.789
  C       48.839     -63.229     177.100
  O       49.692     -63.754     178.144
  C       49.635     -62.248     176.221
  N       49.046     -57.257     175.502
  C       49.962     -57.942     176.276
  N       50.850     -57.183     176.971
  N       50.014     -59.245     176.379
  C       49.052     -59.872     175.647
  C       48.081     -59.301     174.851
  C       48.049     -57.862     174.738
  O       47.265     -57.210     174.060
  N       47.289     -60.262     174.269
  C       47.757     -61.396     174.737
  N       48.828     -61.216     175.584
  O       49.915     -66.863     171.750
  O       48.300     -68.527     172.823
  H       49.148     -64.390     178.654
  H       50.040     -67.653     171.187
  H       49.052     -56.252     175.468
  H       47.365     -62.377     174.493
  H       50.423     -61.732     176.781
  H       47.957     -62.807     177.594
  H       50.853     -56.175     176.954
  H       47.655     -64.015     175.485
  H       51.533     -57.666     177.542
  H       50.560     -64.974     175.866
  H       49.052     -64.393     173.292
  H       50.638     -65.191     173.482
  P       46.720     -66.104     176.781
  C       46.105     -65.201     179.141
  O       45.863     -65.136     177.736
  O       46.842     -67.460     177.629
  O       46.135     -66.359     175.436
  H       46.697     -68.235     177.048
  H       45.467     -64.506     179.645
  H       47.127     -64.955     179.339
  H       45.902     -66.191     179.492

 6  7  8  9  10  11  12  13  14  15  26  29  33  34 0
 6-311+G(2d,p)
 ****
 36  38  39  40  41 0
 6-311+G(2d,p)
 ****
 1  2  3  4  5  16  17  18  19  20  21  22  23  24  25 0
 3-21G
 ****
 27  28  30  31  32  35  37  42  43  44  45  46  47 0
 3-21G
 ****
 48  49 0
 3-21G
 ****


