%nproc=1
%NoSave
%Mem=1900MB
#P OB98/GEN NMR

erre ene a

0 1
  C      259.539     319.491     795.500
  O      260.240     320.641     795.064
  H      259.518     318.769     794.680
  H      258.510     319.756     795.759
  H      260.038     319.038     796.355
  P      260.507     321.826     796.110
  C      262.505     322.675     797.489
  O      262.011     321.649     796.638
  C      264.013     322.535     797.680
  O      264.279     321.352     798.476
  C      264.792     322.405     796.368
  O      266.023     323.108     796.498
  C      265.063     320.913     796.270
  O      266.232     320.627     795.494
  C      265.199     320.519     797.740
  N      267.167     316.071     799.103
  C      267.732     317.329     799.084
  N      269.031     317.419     799.456
  N      267.094     318.410     798.723
  C      265.798     318.174     798.388
  C      265.124     316.979     798.365
  C      265.849     315.785     798.752
  O      265.403     314.648     798.780
  N      263.827     317.153     797.942
  C      263.722     318.446     797.704
  N      264.898     319.109     797.948
  O      259.483     321.969     797.192
  O      260.587     323.138     795.199
  H      266.160     321.149     794.665
  H      259.748     323.633     795.227
  H      267.707     315.271     799.380
  H      262.835     318.948     797.351
  H      266.208     320.689     798.126
  H      264.207     320.408     795.800
  H      269.590     316.635     799.760
  H      264.236     322.779     795.502
  H      269.464     318.334     799.473
  H      264.374     323.396     798.262
  H      262.000     322.589     798.456
  H      262.270     323.650     797.051
  P      266.186     324.524     795.751
  C      265.685     326.998     796.271
  O      265.826     325.682     796.805
  O      265.522     324.632     794.423
  O      267.786     324.666     795.613
  H      267.978     325.198     794.815
  H      265.447     327.680     797.061
  H      264.900     327.006     795.544
  H      266.603     327.295     795.808

 6  7  8  9  10  11  12  13  14  15  26  29  33  34 0
 6-311+G(2d,p)
 ****
 36  38  39  40  41 0
 6-311+G(2d,p)
 ****
 1  2  3  4  5  16  17  18  19  20  21  22  23  24  25 0
 3-21G
 ****
 27  28  30  31  32  35  37  42  43  44  45  46  47 0
 3-21G
 ****
 48  49 0
 3-21G
 ****


