%nproc=1
%NoSave
%Mem=1900MB
#P OB98/GEN NMR

erre ene a

0 1
  C     -464.148     576.069     -63.417
  O     -463.272     576.404     -64.495
  P     -463.882     577.361     -65.638
  C     -462.759     579.558     -64.825
  O     -463.975     578.852     -65.039
  C     -462.365     580.342     -66.076
  O     -463.350     581.336     -66.434
  C     -461.046     581.089     -65.935
  O     -459.958     580.199     -66.108
  C     -461.161     582.136     -67.037
  O     -460.751     581.595     -68.314
  C     -462.660     582.461     -67.045
  N     -464.275     587.238     -67.631
  C     -463.859     586.315     -68.580
  N     -463.899     586.724     -69.867
  N     -463.444     585.114     -68.288
  C     -463.452     584.853     -66.959
  C     -463.859     585.673     -65.930
  C     -464.322     586.998     -66.271
  O     -464.715     587.839     -65.469
  N     -463.782     585.030     -64.714
  C     -463.202     583.874     -65.000
  N     -463.037     583.684     -66.355
  O     -465.418     576.887     -65.733
  O     -463.191     577.234     -66.951
  H     -460.869     582.281     -68.999
  H     -465.567     576.420     -66.578
  H     -464.577     588.151     -67.914
  H     -462.907     583.132     -64.278
  H     -463.048     582.554     -68.067
  H     -460.506     582.995     -66.849
  H     -464.220     587.631     -70.168
  H     -461.002     581.583     -64.954
  H     -463.618     586.055     -70.585
  H     -462.300     579.622     -66.900
  H     -461.959     578.854     -64.562
  H     -462.893     580.227     -63.961
  P     -458.509     580.675     -65.622
  C     -458.511     579.175     -63.495
  O     -458.449     580.486     -64.039
  O     -458.560     582.268     -65.833
  O     -457.368     580.071     -66.383
  H     -457.725     582.574     -66.241
  H     -457.959     579.156     -62.551
  H     -458.075     578.441     -64.180
  H     -459.553     578.930     -63.299
  H     -463.635     575.434     -62.725
  H     -465.007     575.559     -63.801
  H     -464.458     576.963     -62.918

 3  4  5  6  7  8  9  10  11  12  23  26  30  31 0
 6-311+G(2d,p)
 ****
 33  35  36  37  38 0
 6-311+G(2d,p)
 ****
 1  2  13  14  15  16  17  18  19  20  21  22  24  25 0
 3-21G
 ****
 27  28  29  32  34  39  40  41  42  43  44  45  46  47  48  49 0
 3-21G
 ****


