%nproc=1
%NoSave
%Mem=1900MB
#P OB98/GEN NMR

erre ene a

0 1
  C       22.686     -34.582    -645.983
  O       23.438     -33.916    -646.977
  H       21.633     -34.633    -646.278
  H       23.072     -35.598    -645.867
  H       22.781     -34.060    -645.025
  P       23.005     -32.403    -647.300
  C       21.148     -32.996    -649.007
  O       21.458     -32.446    -647.730
  C       19.643     -33.170    -649.156
  O       19.381     -33.754    -650.460
  C       19.008     -34.084    -648.086
  O       17.870     -33.445    -647.494
  C       18.532     -35.295    -648.873
  O       17.328     -35.850    -648.353
  C       18.343     -34.732    -650.278
  N       15.719     -37.208    -653.880
  C       15.517     -36.008    -653.296
  N       16.307     -35.357    -652.412
  C       17.426     -36.064    -652.171
  C       17.783     -37.291    -652.707
  C       16.865     -37.883    -653.589
  N       17.043     -39.125    -654.141
  N       19.009     -37.705    -652.213
  C       19.360     -36.768    -651.359
  N       18.429     -35.767    -651.286
  O       23.777     -32.088    -648.667
  O       23.354     -31.419    -646.235
  H       16.972     -36.454    -649.038
  H       24.386     -31.342    -648.520
  H       14.596     -35.501    -653.571
  H       20.247     -36.789    -650.734
  H       17.377     -34.222    -650.382
  H       19.311     -36.065    -648.850
  H       19.716     -34.368    -647.302
  H       19.170     -32.180    -649.141
  H       21.638     -33.978    -649.108
  H       16.279     -39.526    -654.669
  H       17.837     -39.674    -653.844
  H       21.539     -32.332    -649.783
  P       17.838     -33.412    -645.884
  C       15.932     -35.163    -645.583
  O       17.307     -34.840    -645.370
  O       16.623     -32.410    -645.566
  O       19.106     -32.940    -645.264
  H       16.939     -31.676    -645.001
  H       15.730     -36.138    -645.190
  H       15.721     -35.150    -646.632
  H       15.315     -34.443    -645.086

 6  7  8  9  10  11  12  13  14  15  25  28  32  33  34  35 0
 6-311+G(2d,p)
 ****
 36  39  40 0
 6-311+G(2d,p)
 ****
 1  2  3  4  5  16  17  18  19  20  21  22  23  24 0
 3-21G
 ****
 26  27  29  30  31  37  38  41  42  43  44  45  46  47  48 0
 3-21G
 ****


