%nproc=1
%NoSave
%Mem=1900MB
#P OB98/GEN NMR

erre ene a

0 1
  C     -225.175    -165.996      78.062
  O     -225.399    -167.146      77.235
  P     -224.486    -168.460      77.351
  C     -222.368    -169.465      76.295
  O     -223.120    -168.276      76.520
  C     -221.187    -169.260      75.337
  O     -221.651    -168.997      73.983
  C     -220.243    -168.109      75.709
  O     -218.943    -168.497      75.255
  C     -220.782    -166.968      74.862
  O     -219.857    -165.905      74.686
  C     -221.136    -167.716      73.580
  N     -221.968    -163.554      70.705
  C     -220.832    -164.077      71.224
  N     -220.685    -165.205      71.943
  C     -221.861    -165.844      72.084
  C     -223.098    -165.440      71.604
  C     -223.129    -164.227      70.893
  N     -224.287    -163.665      70.401
  N     -224.083    -166.337      71.969
  C     -223.450    -167.259      72.669
  N     -222.104    -167.008      72.762
  O     -225.209    -169.734      77.049
  O     -223.992    -168.465      78.874
  H     -220.326    -165.159      74.271
  H     -224.096    -169.363      79.242
  H     -219.924    -163.506      71.039
  H     -223.916    -168.113      73.147
  H     -220.243    -167.892      72.966
  H     -221.676    -166.551      75.349
  H     -220.231    -167.880      76.777
  H     -220.631    -170.207      75.295
  H     -223.040    -170.227      75.884
  H     -224.221    -162.749      69.987
  H     -225.175    -164.084      70.643
  H     -222.000    -169.835      77.259
  P     -217.634    -168.256      76.142
  C     -215.964    -166.345      76.492
  O     -217.046    -166.829      75.714
  O     -216.642    -169.372      76.118
  O     -218.190    -167.997      77.623
  H     -217.475    -168.139      78.268
  H     -216.337    -165.971      77.450
  H     -215.471    -165.532      75.954
  H     -215.228    -167.141      76.676
  H     -225.892    -165.239      77.822
  H     -224.188    -165.620      77.890
  H     -225.278    -166.271      79.091

 3  4  5  6  7  8  9  10  11  12  22  25  29  30  31  32 0
 6-311+G(2d,p)
 ****
 33  36  37 0
 6-311+G(2d,p)
 ****
 1  2  13  14  15  16  17  18  19  20  21  23  24  26 0
 3-21G
 ****
 27  28  34  35  38  39  40  41  42  43  44  45  46  47  48 0
 3-21G
 ****


