%nproc=1
%NoSave
%Mem=1900MB
#P OB98/GEN NMR

erre ene a

0 1
  C     -412.105    -546.074      17.440
  O     -413.293    -546.813      17.153
  P     -413.324    -547.668      15.795
  C     -412.609    -550.115      16.341
  O     -412.215    -548.825      15.894
  C     -412.231    -550.305      17.815
  O     -412.926    -549.378      18.665
  C     -412.592    -551.681      18.347
  O     -411.648    -552.649      17.917
  C     -412.590    -551.448      19.859
  O     -411.285    -551.676      20.426
  C     -412.977    -549.953      19.973
  N     -414.282    -549.765      20.588
  C     -414.456    -548.580      21.321
  O     -413.517    -547.786      21.434
  N     -415.667    -548.352      21.911
  C     -416.615    -549.225      21.814
  N     -417.790    -548.950      22.437
  C     -416.472    -550.498      21.078
  C     -415.283    -550.703      20.491
  O     -412.700    -546.658      14.710
  O     -414.687    -548.132      15.392
  H     -411.035    -552.591      20.156
  H     -413.103    -546.813      13.839
  H     -417.278    -551.209      21.029
  H     -415.087    -551.615      19.932
  H     -412.236    -549.416      20.581
  H     -413.280    -552.122      20.368
  H     -413.599    -551.963      18.023
  H     -411.145    -550.139      17.917
  H     -417.861    -548.067      22.941
  H     -412.140    -550.888      15.729
  H     -418.590    -549.566      22.421
  H     -413.690    -550.216      16.198
  P     -411.859    -553.310      16.481
  C     -409.572    -552.533      15.627
  O     -410.976    -552.440      15.475
  O     -413.353    -552.831      16.105
  O     -411.716    -554.796      16.382
  H     -413.643    -553.257      15.286
  H     -409.093    -552.060      14.766
  H     -409.259    -553.578      15.668
  H     -409.257    -552.015      16.537
  H     -412.223    -545.555      18.368
  H     -411.927    -545.367      16.657
  H     -411.275    -546.746      17.510

 3  4  5  6  7  8  9  10  11  12  13  21  23  27  28  29  30  32 0
 6-311+G(2d,p)
 ****
 34  35 0
 6-311+G(2d,p)
 ****
 1  2  14  15  16  17  18  19  20  22  24  25  26 0
 3-21G
 ****
 31  33  36  37  38  39  40  41  42  43  44  45  46 0
 3-21G
 ****


