%nproc=1
%NoSave
%Mem=1900MB
#P OB98/GEN NMR

erre ene a

0 1
  C      238.940    -331.882    -226.211
  O      238.208    -330.960    -225.426
  H      239.170    -331.416    -227.173
  H      238.351    -332.785    -226.388
  H      239.876    -332.138    -225.707
  P      237.737    -331.467    -223.979
  C      238.927    -332.933    -222.223
  O      239.086    -332.001    -223.286
  C      240.120    -332.870    -221.273
  O      241.292    -333.372    -221.965
  C      240.438    -331.451    -220.792
  O      240.844    -331.497    -219.425
  C      241.616    -331.035    -221.659
  O      242.422    -330.037    -221.037
  C      242.322    -332.370    -221.883
  N      247.078    -332.309    -223.729
  C      246.593    -332.450    -222.476
  N      245.305    -332.474    -222.072
  C      244.479    -332.376    -223.127
  C      244.823    -332.219    -224.457
  C      246.196    -332.183    -224.749
  N      246.695    -332.008    -226.017
  N      243.688    -332.109    -225.240
  C      242.678    -332.212    -224.393
  N      243.107    -332.355    -223.104
  O      236.592    -332.423    -223.967
  O      237.483    -330.082    -223.216
  H      242.860    -330.436    -220.257
  H      238.196    -329.442    -223.393
  H      247.341    -332.557    -221.690
  H      241.629    -332.170    -224.662
  H      243.001    -332.631    -221.060
  H      241.247    -330.627    -222.609
  H      239.592    -330.770    -220.903
  H      239.935    -333.543    -220.428
  H      238.835    -333.950    -222.626
  H      247.696    -332.007    -226.140
  H      246.053    -331.931    -226.797
  H      238.002    -332.687    -221.693
  P      239.711    -331.619    -218.295
  C      237.864    -333.422    -218.253
  O      239.262    -333.155    -218.187
  O      238.596    -330.630    -218.378
  O      240.551    -331.416    -216.945
  H      240.015    -330.905    -216.311
  H      237.698    -334.476    -218.170
  H      237.478    -333.073    -219.188
  H      237.366    -332.918    -217.451

 6  7  8  9  10  11  12  13  14  15  25  28  32  33  34  35 0
 6-311+G(2d,p)
 ****
 36  39  40 0
 6-311+G(2d,p)
 ****
 1  2  3  4  5  16  17  18  19  20  21  22  23  24 0
 3-21G
 ****
 26  27  29  30  31  37  38  41  42  43  44  45  46  47 0
 3-21G
 ****
 48 0
 3-21G
 ****


