%nproc=1
%NoSave
%Mem=1900MB
#P OB98/GEN NMR

erre ene a

0 1
  C      320.597    -200.174     -14.812
  O      320.281    -199.145     -15.728
  H      321.663    -200.118     -14.574
  H      320.387    -201.149     -15.260
  H      320.021    -200.055     -13.890
  P      318.733    -198.938     -16.081
  C      318.465    -196.769     -14.625
  O      318.074    -198.114     -14.867
  C      317.229    -195.875     -14.541
  O      316.471    -195.915     -15.765
  C      316.229    -196.305     -13.480
  O      316.686    -196.063     -12.168
  C      315.024    -195.468     -13.883
  O      315.160    -194.115     -13.429
  C      315.109    -195.537     -15.428
  N      314.136    -196.461     -15.998
  C      313.815    -196.255     -17.345
  O      314.351    -195.344     -17.979
  N      312.875    -197.066     -17.930
  C      312.323    -198.015     -17.240
  N      311.392    -198.777     -17.874
  C      312.650    -198.283     -15.827
  C      313.552    -197.472     -15.272
  O      318.129    -200.405     -15.879
  O      318.459    -198.334     -17.418
  H      315.193    -194.154     -12.453
  H      318.328    -200.793     -15.011
  H      312.172    -199.091     -15.295
  H      313.848    -197.601     -14.240
  H      314.937    -194.548     -15.868
  H      314.096    -195.854     -13.458
  H      315.964    -197.361     -13.616
  H      317.569    -194.842     -14.379
  H      311.178    -198.549     -18.839
  H      319.146    -196.413     -15.404
  H      310.874    -199.520     -17.431
  H      319.011    -196.747     -13.675
  P      315.876    -196.629     -10.906
  C      316.813    -199.014     -11.136
  O      315.652    -198.195     -11.182
  O      314.634    -195.877     -10.557
  O      316.977    -196.646      -9.744
  H      317.753    -197.203      -9.924
  H      316.541    -200.030     -11.334
  H      317.259    -198.947     -10.166
  H      317.513    -198.682     -11.874

 6  7  8  9  10  11  12  13  14  15  16  26  30  31  32  33  35 0
 6-311+G(2d,p)
 ****
 37  38 0
 6-311+G(2d,p)
 ****
 1  2  3  4  5  17  18  19  20  21  22  23  24  25 0
 3-21G
 ****
 27  28  29  34  36  39  40  41  42  43  44  45  46 0
 3-21G
 ****


