%nproc=1
%NoSave
%Mem=1900MB
#P OB98/GEN NMR

erre ene a

0 1
  C     -156.070    -885.293     533.585
  O     -156.690    -884.088     533.973
  P     -157.403    -883.082     532.964
  C     -156.632    -881.458     531.064
  O     -156.306    -882.547     531.915
  C     -155.444    -881.092     530.165
  O     -154.412    -880.471     530.987
  C     -154.794    -882.339     529.537
  O     -154.422    -882.179     528.170
  C     -153.686    -882.698     530.520
  O     -152.663    -883.517     529.963
  C     -153.240    -881.305     530.998
  N     -149.592    -883.134     534.036
  C     -149.713    -883.247     532.670
  N     -148.877    -884.112     532.055
  N     -150.623    -882.607     531.963
  C     -151.479    -881.875     532.725
  C     -151.454    -881.685     534.087
  C     -150.426    -882.367     534.842
  O     -150.342    -882.386     536.074
  N     -152.506    -880.921     534.515
  C     -153.201    -880.682     533.420
  N     -152.634    -881.277     532.306
  O     -158.344    -882.085     533.552
  O     -158.275    -884.106     532.055
  H     -152.042    -883.735     530.677
  H     -159.096    -883.632     531.802
  H     -148.927    -883.713     534.529
  H     -154.131    -880.123     533.370
  H     -152.506    -880.871     530.312
  H     -154.144    -883.252     531.338
  H     -148.273    -884.730     532.589
  H     -155.512    -883.171     529.505
  H     -149.110    -884.404     531.107
  H     -155.757    -880.351     529.409
  H     -156.886    -880.613     531.713
  H     -157.509    -881.697     530.454
  P     -154.071    -883.302     527.077
  C     -151.978    -884.236     525.938
  O     -152.479    -883.464     527.011
  O     -154.416    -882.640     525.666
  O     -154.820    -884.594     527.248
  H     -154.824    -883.315     525.087
  H     -150.932    -884.514     526.151
  H     -152.002    -883.654     525.010
  H     -152.551    -885.162     525.822
  H     -155.669    -885.782     534.448
  H     -155.280    -885.082     532.895
  H     -156.791    -885.930     533.117

 3  4  5  6  7  8  9  10  11  12  23  26  30  31 0
 6-311+G(2d,p)
 ****
 33  35  36  37  38 0
 6-311+G(2d,p)
 ****
 1  2  13  14  15  16  17  18  19  20  21  22  24  25 0
 3-21G
 ****
 27  28  29  32  34  39  40  41  42  43  44  45  46  47  48  49 0
 3-21G
 ****


