%nproc=1
%NoSave
%Mem=1900MB
#P OB98/GEN NMR

erre ene a

0 1
  C     -150.148    -115.253     151.707
  O     -151.333    -115.487     150.971
  H     -149.296    -115.303     151.023
  H     -150.026    -116.018     152.481
  H     -150.178    -114.259     152.160
  P     -152.706    -115.491     151.804
  C     -153.346    -117.778     150.766
  O     -153.074    -117.047     151.955
  C     -152.680    -119.150     150.820
  O     -151.255    -119.008     150.972
  C     -153.151    -120.036     151.968
  O     -154.356    -120.696     151.627
  C     -151.987    -121.014     152.078
  O     -152.127    -122.040     151.076
  C     -150.768    -120.129     151.756
  N     -147.776    -121.309     155.758
  C     -148.469    -122.085     154.899
  N     -149.286    -121.706     153.896
  C     -149.352    -120.363     153.810
  C     -148.701    -119.443     154.623
  C     -147.876    -119.965     155.635
  N     -147.173    -119.166     156.513
  N     -149.010    -118.150     154.247
  C     -149.779    -118.294     153.190
  N     -150.044    -119.612     152.905
  O     -153.786    -114.604     151.273
  O     -152.176    -115.117     153.267
  H     -151.267    -122.498     151.016
  H     -151.341    -115.579     153.457
  H     -148.354    -123.156     155.040
  H     -150.157    -117.481     152.577
  H     -150.032    -120.667     151.141
  H     -151.951    -121.512     153.044
  H     -153.234    -119.467     152.907
  H     -152.856    -119.649     149.853
  H     -152.985    -117.222     149.889
  H     -146.768    -119.621     157.318
  H     -147.354    -118.173     156.499
  H     -154.435    -117.885     150.679
  P     -155.762    -120.220     152.232
  C     -155.706    -122.547     153.333
  O     -156.004    -121.166     153.510
  O     -156.878    -120.166     151.246
  O     -155.447    -118.800     152.892
  H     -156.283    -118.311     153.053
  H     -155.904    -123.074     154.243
  H     -154.674    -122.659     153.073
  H     -156.316    -122.946     152.550

 6  7  8  9  10  11  12  13  14  15  25  28  32  33  34  35 0
 6-311+G(2d,p)
 ****
 36  39  40 0
 6-311+G(2d,p)
 ****
 1  2  3  4  5  16  17  18  19  20  21  22  23  24 0
 3-21G
 ****
 26  27  29  30  31  37  38  41  42  43  44  45  46  47 0
 3-21G
 ****
 48 0
 3-21G
 ****


