%nproc=1
%NoSave
%Mem=1900MB
#P OB98/GEN NMR

erre ene a

0 1
  C     -604.076     342.390    -734.448
  O     -602.935     342.884    -733.771
  P     -602.586     344.437    -733.958
  C     -602.619     345.014    -731.407
  O     -601.865     344.927    -732.615
  C     -601.686     345.213    -730.216
  O     -600.844     344.060    -730.038
  C     -600.746     346.402    -730.378
  O     -601.397     347.627    -730.102
  C     -599.645     346.058    -729.371
  O     -600.020     346.462    -728.049
  C     -599.591     344.519    -729.478
  N     -598.451     344.048    -730.246
  C     -597.301     343.742    -729.516
  O     -597.236     343.877    -728.284
  N     -596.216     343.324    -730.228
  C     -596.146     343.222    -731.591
  O     -595.130     342.883    -732.182
  C     -597.380     343.574    -732.320
  C     -598.440     343.981    -731.631
  O     -604.013     345.168    -733.902
  O     -601.839     344.762    -735.211
  H     -600.937     346.154    -727.916
  H     -604.014     345.929    -734.510
  H     -595.388     343.070    -729.715
  H     -597.349     343.514    -733.399
  H     -599.356     344.264    -732.145
  H     -599.537     344.075    -728.470
  H     -598.699     346.555    -729.604
  H     -600.308     346.392    -731.395
  H     -602.308     345.340    -729.318
  H     -603.201     344.104    -731.282
  H     -603.322     345.855    -731.499
  P     -600.753     348.957    -730.750
  C     -601.486     348.416    -733.190
  O     -601.627     349.248    -732.062
  O     -599.357     348.383    -731.292
  O     -600.626     350.079    -729.773
  H     -599.427     347.455    -731.569
  H     -601.297     347.379    -732.910
  H     -600.661     348.776    -733.815
  H     -602.410     348.460    -733.786
  H     -604.192     341.347    -734.238
  H     -603.954     342.530    -735.502
  H     -604.945     342.919    -734.116

 3  4  5  6  7  8  9  10  11  12  13  23  28  29  30  31  32 0
 6-311+G(2d,p)
 ****
 33  34 0
 6-311+G(2d,p)
 ****
 1  2  14  15  16  17  18  19  20  21  22  24  25  26 0
 3-21G
 ****
 27  35  36  37  38  39  40  41  42  43  44  45 0
 3-21G
 ****


