%nproc=1
%NoSave
%Mem=1900MB
#P OB98/GEN NMR

erre ene a

0 1
  C      -24.145    -109.377      84.452
  O      -23.457    -108.267      84.994
  H      -25.188    -109.338      84.782
  H      -23.704    -110.314      84.804
  H      -24.123    -109.343      83.359
  P      -21.884    -108.138      84.722
  C      -21.190    -109.339      86.907
  O      -21.192    -109.367      85.483
  C      -20.512    -110.589      87.468
  O      -21.230    -111.771      87.063
  C      -19.079    -110.789      86.989
  O      -18.203    -109.898      87.650
  C      -18.880    -112.260      87.311
  O      -18.619    -112.451      88.711
  C      -20.265    -112.842      86.931
  N      -20.306    -113.416      85.589
  C      -20.016    -114.783      85.495
  O      -19.731    -115.428      86.505
  N      -20.039    -115.372      84.254
  C      -20.367    -114.677      83.210
  N      -20.375    -115.322      82.012
  C      -20.711    -113.244      83.271
  C      -20.652    -112.681      84.477
  O      -21.270    -106.803      85.017
  O      -21.725    -108.531      83.178
  H      -18.574    -113.418      88.850
  H      -21.738    -107.732      82.618
  H      -20.988    -112.706      82.376
  H      -20.891    -111.630      84.609
  H      -20.561    -113.624      87.644
  H      -18.041    -112.695      86.767
  H      -19.019    -110.662      85.900
  H      -20.559    -110.534      88.564
  H      -20.149    -116.311      82.023
  H      -22.236    -109.300      87.230
  H      -20.766    -114.928      81.167
  H      -20.682    -108.440      87.275
  P      -17.136    -109.013      86.841
  C      -15.023    -110.045      87.881
  O      -15.820    -109.926      86.713
  O      -16.903    -107.646      87.388
  O      -17.704    -109.014      85.344
  H      -18.463    -108.384      85.265
  H      -14.181    -110.672      87.676
  H      -15.606    -110.476      88.668
  H      -14.682    -109.076      88.180

 6  7  8  9  10  11  12  13  14  15  16  26  30  31  32  33  35 0
 6-311+G(2d,p)
 ****
 37  38 0
 6-311+G(2d,p)
 ****
 1  2  3  4  5  17  18  19  20  21  22  23  24  25 0
 3-21G
 ****
 27  28  29  34  36  39  40  41  42  43  44  45  46 0
 3-21G
 ****


