%nproc=1
%NoSave
%Mem=1900MB
#P OB98/GEN NMR

erre ene a

0 1
  C      195.403    -753.266     339.371
  O      196.513    -753.730     338.601
  P      197.757    -752.737     338.389
  C      199.637    -754.438     338.892
  O      198.979    -753.236     339.305
  C      201.165    -754.265     338.943
  O      201.543    -753.233     337.990
  C      201.722    -753.798     340.296
  O      202.075    -754.796     341.253
  C      203.021    -753.125     339.865
  O      204.053    -754.117     339.708
  C      202.681    -752.510     338.514
  N      202.999    -748.028     336.059
  C      203.394    -749.277     335.708
  N      203.280    -750.415     336.425
  C      202.662    -750.184     337.599
  C      202.207    -748.967     338.079
  C      202.398    -747.850     337.254
  N      202.015    -746.576     337.607
  N      201.640    -749.114     339.329
  C      201.774    -750.402     339.605
  N      202.368    -751.086     338.592
  O      197.451    -751.281     338.468
  O      198.253    -753.129     336.916
  H      204.828    -753.654     339.335
  H      198.542    -752.327     336.448
  H      203.871    -749.377     334.742
  H      201.447    -750.873     340.527
  H      203.493    -752.626     337.787
  H      203.393    -752.412     340.613
  H      201.049    -753.064     340.766
  H      201.651    -755.200     338.641
  H      199.332    -754.705     337.879
  H      202.232    -745.817     336.975
  H      201.612    -746.414     338.521
  H      199.290    -755.238     339.548
  P      202.022    -754.499     342.827
  C      200.579    -756.620     343.357
  O      200.684    -755.209     343.354
  O      202.152    -753.061     343.201
  O      203.182    -755.443     343.406
  H      202.996    -756.391     343.336
  H      199.702    -756.902     343.943
  H      201.468    -757.078     343.793
  H      200.443    -756.977     342.329
  H      194.659    -754.033     339.423
  H      194.986    -752.396     338.908
  H      195.732    -753.021     340.359

 3  4  5  6  7  8  9  10  11  12  22  25  29  30  31  32 0
 6-311+G(2d,p)
 ****
 33  36  37 0
 6-311+G(2d,p)
 ****
 1  2  13  14  15  16  17  18  19  20  21  23  24  26 0
 3-21G
 ****
 27  28  34  35  38  39  40  41  42  43  44  45  46  47  48 0
 3-21G
 ****


