%nproc=1
%NoSave
%Mem=1900MB
#P OB98/GEN NMR

erre ene a

0 1
  C     -481.712     -75.340    -157.041
  O     -481.266     -73.978    -157.018
  P     -480.435     -73.499    -155.730
  C     -478.578     -72.278    -157.093
  O     -479.611     -72.180    -156.118
  C     -478.402     -70.940    -157.821
  O     -479.327     -70.821    -158.919
  C     -478.681     -69.740    -156.934
  O     -477.580     -69.487    -156.080
  C     -478.935     -68.636    -157.958
  O     -477.719     -67.958    -158.318
  C     -479.507     -69.412    -159.166
  N     -480.908     -69.097    -159.428
  C     -481.185     -67.763    -159.733
  O     -480.281     -66.923    -159.751
  N     -482.489     -67.406    -159.984
  C     -483.430     -68.299    -159.909
  N     -484.703     -67.885    -160.166
  C     -483.176     -69.716    -159.563
  C     -481.907     -70.042    -159.330
  O     -479.295     -74.619    -155.595
  O     -481.254     -73.388    -154.485
  H     -477.077     -68.660    -158.547
  H     -479.069     -74.756    -154.656
  H     -483.995     -70.422    -159.507
  H     -481.628     -71.060    -159.070
  H     -478.936     -69.180    -160.076
  H     -479.619     -67.879    -157.568
  H     -479.591     -69.911    -156.342
  H     -477.377     -70.889    -158.214
  H     -484.836     -66.912    -160.399
  H     -478.815     -73.063    -157.817
  H     -485.505     -68.493    -160.129
  H     -477.647     -72.580    -156.595
  P     -477.884     -69.156    -154.540
  C     -475.695     -70.321    -153.849
  O     -476.442     -69.120    -153.827
  O     -478.478     -70.555    -154.014
  O     -478.803     -68.019    -154.250
  H     -478.797     -70.462    -153.101
  H     -474.676     -70.108    -153.524
  H     -475.670     -70.744    -154.859
  H     -476.138     -71.045    -153.154
  H     -482.249     -75.524    -157.948
  H     -482.354     -75.519    -156.204
  H     -480.866     -75.993    -156.988

 3  4  5  6  7  8  9  10  11  12  13  21  23  27  28  29  30  32 0
 6-311+G(2d,p)
 ****
 34  35 0
 6-311+G(2d,p)
 ****
 1  2  14  15  16  17  18  19  20  22  24  25  26 0
 3-21G
 ****
 31  33  36  37  38  39  40  41  42  43  44  45  46 0
 3-21G
 ****


