%nproc=1
%NoSave
%Mem=1900MB
#P OB98/GEN NMR

erre ene a

0 1
  C     -410.606     366.793     371.245
  O     -411.497     366.562     372.323
  P     -412.983     367.165     372.200
  C     -413.890     365.702     374.146
  O     -413.652     367.011     373.650
  C     -414.227     365.754     375.639
  O     -413.044     366.033     376.416
  C     -415.223     366.845     376.008
  O     -416.565     366.457     375.761
  C     -414.978     366.963     377.508
  O     -415.659     365.909     378.206
  C     -413.455     366.762     377.603
  N     -411.312     370.127     380.712
  C     -411.786     368.861     380.980
  N     -411.742     368.458     382.267
  N     -412.272     368.058     380.067
  C     -412.255     368.600     378.818
  C     -411.804     369.845     378.430
  C     -411.296     370.724     379.456
  O     -410.899     371.876     379.293
  N     -411.952     370.032     377.083
  C     -412.494     368.907     376.655
  N     -412.736     368.025     377.676
  O     -413.752     366.075     371.314
  O     -413.049     368.530     371.599
  H     -415.080     365.643     378.950
  H     -414.575     366.461     370.954
  H     -410.957     370.708     381.455
  H     -412.730     368.693     375.613
  H     -413.172     366.161     378.468
  H     -415.338     367.906     377.925
  H     -411.445     369.049     383.031
  H     -414.977     367.797     375.530
  H     -412.147     367.560     382.500
  H     -414.603     364.766     375.935
  H     -413.001     365.087     373.995
  H     -414.720     365.250     373.589
  P     -417.663     367.636     375.753
  C     -419.408     366.427     374.250
  O     -419.070     366.896     375.542
  O     -417.395     368.364     374.362
  O     -417.573     368.573     376.916
  H     -417.682     369.299     374.397
  H     -420.252     365.734     374.338
  H     -418.562     365.901     373.792
  H     -419.708     367.263     373.612
  H     -409.661     366.339     371.460
  H     -410.474     367.846     371.111
  H     -411.011     366.368     370.350

 3  4  5  6  7  8  9  10  11  12  23  26  30  31 0
 6-311+G(2d,p)
 ****
 33  35  36  37  38 0
 6-311+G(2d,p)
 ****
 1  2  13  14  15  16  17  18  19  20  21  22  24  25 0
 3-21G
 ****
 27  28  29  32  34  39  40  41  42  43  44  45  46  47  48  49 0
 3-21G
 ****


