%nproc=1
%NoSave
%Mem=1900MB
#P OB98/GEN NMR

erre ene a

0 1
  C      -60.521    -453.017    -847.539
  O      -60.235    -452.149    -846.434
  P      -60.506    -452.713    -844.954
  C      -62.668    -451.301    -844.574
  O      -61.343    -451.604    -844.149
  C      -63.378    -450.430    -843.536
  O      -63.571    -451.119    -842.286
  C      -62.648    -449.150    -843.190
  O      -62.884    -448.133    -844.158
  C      -63.292    -448.772    -841.864
  O      -64.564    -448.142    -842.096
  C      -63.489    -450.159    -841.213
  N      -62.359    -451.823    -836.490
  C      -63.542    -451.510    -837.087
  N      -63.759    -451.048    -838.343
  C      -62.605    -450.939    -839.010
  C      -61.324    -451.224    -838.540
  C      -61.230    -451.684    -837.218
  N      -60.017    -452.009    -836.631
  N      -60.381    -450.989    -839.517
  C      -61.082    -450.589    -840.566
  N      -62.420    -450.529    -840.292
  O      -59.061    -452.648    -844.260
  O      -61.067    -454.100    -844.938
  H      -64.909    -447.877    -841.226
  H      -58.963    -453.401    -843.638
  H      -64.423    -451.625    -836.460
  H      -60.662    -450.308    -841.530
  H      -64.440    -450.204    -840.659
  H      -62.683    -448.074    -841.286
  H      -61.579    -449.330    -843.048
  H      -64.387    -450.188    -843.926
  H      -63.228    -452.217    -844.737
  H      -60.026    -452.347    -835.666
  H      -59.174    -451.926    -837.179
  H      -62.617    -450.791    -845.549
  P      -61.888    -448.070    -845.425
  C      -59.925    -447.592    -843.769
  O      -60.639    -447.192    -844.947
  O      -62.675    -447.112    -846.438
  O      -61.576    -449.400    -846.028
  H      -62.451    -447.342    -847.364
  H      -58.950    -447.099    -843.789
  H      -59.766    -448.673    -843.777
  H      -60.474    -447.292    -842.896
  H      -60.295    -452.514    -848.456
  H      -61.557    -453.283    -847.525
  H      -59.924    -453.902    -847.461

 3  4  5  6  7  8  9  10  11  12  22  25  29  30  31  32 0
 6-311+G(2d,p)
 ****
 33  36  37 0
 6-311+G(2d,p)
 ****
 1  2  13  14  15  16  17  18  19  20  21  23  24  26 0
 3-21G
 ****
 27  28  34  35  38  39  40  41  42  43  44  45  46  47  48 0
 3-21G
 ****


