%nproc=1
%NoSave
%Mem=1900MB
#P OB98/GEN NMR

erre ene a

0 1
  C       32.259     -37.286     -21.984
  O       31.670     -37.902     -23.110
  H       32.709     -38.062     -21.358
  H       31.504     -36.758     -21.397
  H       33.043     -36.591     -22.296
  P       30.879     -36.989     -24.161
  C       31.648     -37.032     -26.624
  O       30.974     -37.729     -25.582
  C       31.976     -37.991     -27.775
  O       33.119     -38.786     -27.373
  C       30.814     -38.942     -28.095
  O       30.446     -38.931     -29.473
  C       31.272     -40.267     -27.497
  O       30.717     -41.413     -28.109
  C       32.799     -40.175     -27.579
  N       33.496     -41.014     -26.606
  C       34.113     -42.166     -27.084
  O       34.140     -42.520     -28.260
  N       34.740     -42.935     -26.137
  C       34.801     -42.677     -24.801
  O       35.383     -43.401     -24.003
  C       34.110     -41.458     -24.355
  C       33.498     -40.695     -25.263
  O       31.262     -35.547     -24.182
  O       29.340     -37.181     -23.760
  H       29.743     -41.349     -28.033
  H       29.032     -36.400     -23.264
  H       35.201     -43.766     -26.474
  H       34.129     -41.227     -23.299
  H       32.980     -39.786     -24.969
  H       33.148     -40.460     -28.572
  H       30.971     -40.289     -26.443
  H       29.897     -38.623     -27.588
  H       32.273     -37.403     -28.650
  H       32.568     -36.610     -26.208
  H       31.016     -36.216     -26.990
  P       29.418     -37.903     -30.130
  C       29.359     -36.747     -32.483
  O       29.658     -37.901     -31.712
  O       29.318     -36.574     -29.460
  O       27.994     -38.643     -29.962
  H       27.327     -37.937     -29.841
  H       29.584     -36.937     -33.512
  H       29.947     -35.924     -32.135
  H       28.320     -36.511     -32.383

 6  7  8  9  10  11  12  13  14  15  16  26  31  32  33  34  35 0
 6-311+G(2d,p)
 ****
 36  37 0
 6-311+G(2d,p)
 ****
 1  2  3  4  5  17  18  19  20  21  22  23  24  25 0
 3-21G
 ****
 27  28  29  30  38  39  40  41  42  43  44  45 0
 3-21G
 ****


