%nproc=1
%NoSave
%Mem=1900MB
#P OB98/GEN NMR

erre ene a

0 1
  C     -893.190     847.223    -894.840
  O     -892.070     846.542    -894.310
  H     -893.450     848.065    -894.170
  H     -894.060     846.552    -894.890
  H     -892.950     847.622    -895.830
  P     -891.630     845.211    -895.080
  C     -892.940     843.022    -895.660
  O     -892.870     844.223    -894.890
  C     -893.720     841.937    -894.900
  O     -895.120     842.334    -894.810
  C     -893.720     840.563    -895.570
  O     -892.480     839.856    -895.370
  C     -894.880     839.941    -894.850
  O     -894.490     839.586    -893.500
  C     -895.910     841.090    -894.820
  N     -896.820     841.081    -896.000
  C     -897.800     840.107    -896.020
  O     -897.900     839.291    -895.100
  N     -898.620     840.041    -897.100
  C     -898.530     840.903    -898.070
  N     -899.360     840.772    -899.140
  C     -897.490     841.958    -898.090
  C     -896.670     841.982    -897.020
  O     -890.510     844.569    -894.120
  O     -891.190     845.391    -896.510
  H     -893.800     838.902    -893.570
  H     -890.260     843.678    -894.440
  H     -897.410     842.641    -898.950
  H     -895.880     842.770    -896.980
  H     -896.510     841.091    -893.920
  H     -895.230     839.033    -895.320
  H     -893.950     840.658    -896.630
  H     -893.340     841.900    -893.880
  H     -900.000     839.991    -899.140
  H     -891.920     842.669    -895.840
  H     -899.260     841.287    -900.000
  H     -893.430     843.235    -896.620
  P     -892.000     838.911    -896.570
  C     -892.600     836.503    -897.360
  O     -892.950     837.623    -896.590
  O     -890.590     838.345    -896.020
  O     -891.870     839.630    -897.890
  H     -889.980     838.230    -896.780
  H     -893.349     835.746    -897.250
  H     -891.657     836.122    -897.028
  H     -892.528     836.786    -898.389

 6  7  8  9  10  11  12  13  14  15  16  26  30  31  32  33  35 0
 6-311+G(2d,p)
 ****
 37  38 0
 6-311+G(2d,p)
 ****
 1  2  3  4  5  17  18  19  20  21  22  23  24  25 0
 3-21G
 ****
 27  28  29  34  36  39  40  41  42  43  44  45  46 0
 3-21G
 ****


