%nproc=1
%NoSave
%Mem=1900MB
#P OB98/GEN NMR

erre ene a

0 1
  C      141.993    -218.216    -232.532
  O      141.168    -218.259    -233.676
  P      141.789    -217.982    -235.138
  C      142.995    -215.978    -236.199
  O      142.064    -216.404    -235.215
  C      143.176    -214.461    -236.147
  O      143.802    -214.053    -234.885
  C      144.092    -213.903    -237.219
  O      143.656    -213.987    -238.558
  C      144.376    -212.505    -236.679
  O      143.306    -211.608    -236.976
  C      144.444    -212.781    -235.151
  N      145.823    -212.763    -234.648
  C      146.285    -211.533    -234.192
  O      145.596    -210.507    -234.187
  N      147.574    -211.509    -233.749
  C      148.453    -212.565    -233.773
  O      149.622    -212.454    -233.409
  C      147.915    -213.828    -234.289
  C      146.649    -213.869    -234.697
  O      140.998    -218.532    -236.270
  O      143.274    -218.587    -235.022
  H      143.541    -210.733    -236.608
  H      143.829    -218.173    -234.333
  H      147.942    -210.630    -233.422
  H      148.588    -214.684    -234.307
  H      146.221    -214.797    -235.080
  H      143.870    -212.018    -234.602
  H      145.290    -212.076    -237.104
  H      145.043    -214.456    -237.182
  H      142.181    -213.997    -236.176
  H      142.613    -216.252    -237.189
  H      143.950    -216.498    -236.061
  P      144.642    -213.861    -239.814
  C      146.653    -212.335    -240.386
  O      145.420    -212.469    -239.709
  O      144.070    -214.237    -241.145
  O      145.788    -214.912    -239.441
  H      146.166    -215.297    -240.258
  H      147.067    -211.334    -240.165
  H      146.512    -212.415    -241.463
  H      147.370    -213.094    -240.043
  H      141.407    -218.424    -231.661
  H      142.430    -217.243    -232.444
  H      142.768    -218.948    -232.623

 3  4  5  6  7  8  9  10  11  12  13  23  28  29  30  31  32 0
 6-311+G(2d,p)
 ****
 33  34 0
 6-311+G(2d,p)
 ****
 1  2  14  15  16  17  18  19  20  21  22  24  25  26  27 0
 3-21G
 ****
 35  36  37  38  39  40  41  42  43  44  45 0
 3-21G
 ****


