%nproc=1
%NoSave
%Mem=1900MB
#P OB98/GEN NMR

erre ene a

0 1
  C     -254.101     144.711     160.358
  O     -254.163     144.852     158.944
  P     -254.645     146.263     158.357
  C     -253.205     146.170     156.207
  O     -254.516     146.160     156.759
  C     -253.222     145.690     154.761
  O     -253.307     144.238     154.747
  C     -254.395     146.229     153.926
  O     -253.914     146.624     152.634
  C     -255.284     145.010     153.738
  O     -256.086     145.115     152.564
  C     -254.234     143.903     153.692
  N     -255.845     139.768     151.279
  C     -255.138     140.856     150.795
  N     -254.884     140.864     149.468
  N     -254.731     141.847     151.543
  C     -255.031     141.689     152.855
  C     -255.711     140.652     153.455
  C     -256.211     139.593     152.607
  O     -256.914     138.649     152.960
  N     -255.805     140.840     154.813
  C     -255.188     141.986     155.033
  N     -254.744     142.562     153.868
  O     -253.452     147.246     158.772
  O     -255.953     146.756     158.872
  H     -256.232     144.208     152.236
  H     -253.803     147.995     159.290
  H     -256.150     139.042     150.657
  H     -255.065     142.449     156.006
  H     -253.687     143.930     152.740
  H     -255.944     144.907     154.605
  H     -255.139     140.117     148.842
  H     -254.930     147.063     154.392
  H     -254.350     141.641     149.097
  H     -252.262     145.956     154.296
  H     -252.563     145.509     156.801
  H     -252.807     147.190     156.262
  P     -253.814     148.208     152.372
  C     -251.217     148.031     152.300
  O     -252.405     148.441     151.650
  O     -253.596     148.807     153.843
  O     -255.008     148.784     151.688
  H     -253.898     149.735     153.879
  H     -251.419     147.432     153.194
  H     -250.649     148.918     152.590
  H     -250.621     147.436     151.604
  H     -253.766     143.725     160.604
  H     -255.073     144.872     160.775
  H     -253.417     145.430     160.759

 3  4  5  6  7  8  9  10  11  12  23  26  30  31  33  0
 6-311+G(2d,p)
 ****
 35  36  37  38 0
 6-311+G(2d,p)
 ****
 1  2  13  14  15  16  17  18  19  20  21  22  24  25  27  28  29 0
 3-21G
 ****
 32  34  39  40  41  42  43  44  45  46  47  48  49 0
 3-21G
 ****


