%nproc=1
%NoSave
%Mem=1900MB
#P OB98/GEN NMR

erre ene a

0 1
  C      -17.913      66.768    -602.999
  O      -17.946      65.563    -602.256
  H      -18.825      66.837    -603.594
  H      -17.050      66.770    -603.671
  H      -17.863      67.625    -602.320
  P      -16.695      65.280    -601.292
  C      -17.857      66.238    -599.184
  O      -16.823      66.395    -600.144
  C      -17.547      67.045    -597.924
  O      -16.284      66.645    -597.361
  C      -17.435      68.549    -598.159
  O      -18.719      69.148    -598.211
  C      -16.664      68.974    -596.920
  O      -17.563      69.064    -595.794
  C      -15.684      67.802    -596.714
  N      -10.670      67.896    -595.628
  C      -11.755      67.825    -594.834
  N      -13.061      67.848    -595.189
  C      -13.192      67.956    -596.521
  C      -12.170      68.041    -597.459
  C      -10.856      67.993    -596.967
  N       -9.746      68.060    -597.785
  N      -12.685      68.141    -598.732
  C      -13.996      68.071    -598.574
  N      -14.351      67.994    -597.250
  O      -15.372      65.169    -601.966
  O      -17.186      63.955    -600.533
  H      -17.025      69.226    -595.002
  H      -18.141      64.007    -600.340
  H      -11.558      67.736    -593.769
  H      -14.716      68.050    -599.375
  H      -15.565      67.556    -595.653
  H      -16.199      69.954    -597.038
  H      -16.839      68.773    -599.047
  H      -18.323      66.821    -597.180
  H      -17.975      65.179    -598.923
  H       -8.851      68.194    -597.342
  H       -9.890      68.255    -598.763
  H      -18.785      66.583    -599.636
  P      -18.887      70.682    -598.652
  C      -19.640      70.165    -601.059
  O      -18.624      70.734    -600.237
  O      -18.087      71.660    -597.864
  O      -20.458      70.965    -598.537
  H      -20.616      71.866    -598.198
  H      -19.359      70.256    -602.087
  H      -20.563      70.681    -600.894
  H      -19.761      69.131    -600.812

 6  7  8  9  10  11  12  13  14  15  25  28  32  33  34  35 0
 6-311+G(2d,p)
 ****
 36  39  40 0
 6-311+G(2d,p)
 ****
 1  2  3  4  5  16  17  18  19  20  21  22  23  24 0
 3-21G
 ****
 26  27  29  30  31  37  38  41  42  43  44  45  46  47 0
 3-21G
 ****
 48 0
 3-21G
 ****


