%nproc=1
%NoSave
%Mem=1900MB
#P OB98/GEN NMR

erre ene a

0 1
  C      355.513    -228.821    -352.856
  O      356.036    -228.458    -351.595
  H      354.704    -228.130    -353.117
  H      355.107    -229.837    -352.813
  H      356.290    -228.763    -353.624
  P      357.383    -229.201    -351.138
  C      355.832    -230.912    -349.892
  O      356.975    -230.697    -350.704
  C      356.062    -232.100    -348.958
  O      355.043    -232.157    -347.939
  C      355.963    -233.461    -349.647
  O      357.075    -233.732    -350.470
  C      355.871    -234.374    -348.436
  O      357.166    -234.697    -347.902
  C      355.068    -233.516    -347.424
  N      353.730    -234.042    -347.213
  C      353.649    -235.123    -346.324
  O      354.673    -235.544    -345.767
  N      352.431    -235.719    -346.113
  C      351.385    -235.289    -346.757
  N      350.210    -235.950    -346.526
  C      351.429    -234.154    -347.697
  C      352.619    -233.580    -347.880
  O      357.714    -228.491    -349.742
  O      358.494    -229.145    -352.130
  H      356.998    -235.181    -347.062
  H      356.955    -228.449    -349.138
  H      350.523    -233.828    -348.199
  H      352.736    -232.744    -348.554
  H      355.581    -233.470    -346.455
  H      355.389    -235.324    -348.680
  H      355.017    -233.531    -350.202
  H      357.040    -231.969    -348.474
  H      350.247    -236.751    -345.915
  H      354.943    -231.081    -350.513
  H      349.358    -235.752    -347.023
  H      355.661    -229.998    -349.313
  P      356.967    -233.640    -352.065
  C      357.169    -236.183    -352.449
  O      356.334    -235.033    -352.567
  O      358.218    -233.248    -352.774
  O      355.746    -232.627    -352.289
  H      354.896    -232.908    -351.901
  H      356.645    -237.043    -352.811
  H      357.430    -236.331    -351.422
  H      358.059    -236.038    -353.026

 6  7  8  9  10  11  12  13  14  15  16  26  30  31  32  33  35 0
 6-311+G(2d,p)
 ****
 37  38 0
 6-311+G(2d,p)
 ****
 1  2  3  4  5  17  18  19  20  21  22  23  24  25 0
 3-21G
 ****
 27  28  29  34  36  39  40  41  42  43  44  45  46 0
 3-21G
 ****


