%nproc=1
%NoSave
%Mem=1900MB
#P OB98/GEN NMR

erre ene a

0 1
  C      202.479    -757.583      55.955
  O      202.542    -758.719      56.796
  H      201.672    -756.931      56.304
  H      202.263    -757.874      54.922
  H      203.420    -757.029      55.993
  P      203.545    -759.904      56.397
  C      204.716    -760.162      58.689
  O      204.826    -759.719      57.341
  C      205.855    -761.122      59.020
  O      207.125    -760.520      58.694
  C      205.928    -761.479      60.497
  O      204.924    -762.409      60.843
  C      207.356    -761.986      60.597
  O      207.464    -763.335      60.134
  C      208.094    -761.012      59.648
  N      208.738    -759.910      60.358
  C      210.023    -760.163      60.846
  O      210.555    -761.261      60.668
  N      210.665    -759.171      61.547
  C      210.084    -758.025      61.726
  N      210.772    -757.087      62.427
  C      208.736    -757.716      61.214
  C      208.127    -758.695      60.550
  O      203.866    -760.053      54.941
  O      202.839    -761.212      56.993
  H      208.416    -763.557      60.169
  H      202.236    -761.604      56.335
  H      208.293    -756.744      61.383
  H      207.134    -758.545      60.138
  H      208.862    -761.546      59.072
  H      207.718    -761.959      61.623
  H      205.846    -760.574      61.109
  H      205.740    -762.021      58.400
  H      211.690    -757.348      62.768
  H      203.749    -760.674      58.786
  H      210.457    -756.138      62.554
  H      204.728    -759.312      59.380
  P      204.398    -762.517      62.354
  C      202.370    -761.030      61.770
  O      203.524    -761.189      62.593
  O      205.446    -762.787      63.378
  O      203.283    -763.665      62.265
  H      203.689    -764.560      62.180
  H      201.876    -760.115      62.022
  H      201.703    -761.851      61.929
  H      202.666    -761.004      60.742

 6  7  8  9  10  11  12  13  14  15  16  26  30  31  32  33  35 0
 6-311+G(2d,p)
 ****
 37  38 0
 6-311+G(2d,p)
 ****
 1  2  3  4  5  17  18  19  20  21  22  23  24  25 0
 3-21G
 ****
 27  28  29  34  36  39  40  41  42  43  44  45  46 0
 3-21G
 ****


