%nproc=1
%NoSave
%Mem=1900MB
#P OB98/GEN NMR

erre ene a

0 1
  C      379.480    -156.084     225.533
  O      379.977    -157.337     225.957
  H      378.394    -156.133     225.425
  H      379.725    -155.337     226.292
  H      379.940    -155.787     224.586
  P      379.877    -158.547     224.906
  C      377.535    -159.555     225.422
  O      378.313    -158.713     224.579
  C      376.810    -160.618     224.591
  O      377.795    -161.407     223.876
  C      375.963    -161.576     225.437
  O      374.753    -161.875     224.728
  C      376.829    -162.823     225.527
  O      376.064    -163.997     225.762
  C      377.543    -162.794     224.180
  N      379.580    -167.465     224.562
  C      378.300    -167.039     224.454
  N      377.842    -165.776     224.354
  C      378.866    -164.905     224.315
  C      380.221    -165.182     224.415
  C      380.568    -166.536     224.556
  N      381.866    -166.971     224.703
  N      380.958    -164.016     224.375
  C      380.068    -163.052     224.254
  N      378.788    -163.538     224.216
  O      380.209    -159.824     225.816
  O      380.779    -158.453     223.722
  H      375.521    -164.174     224.966
  H      381.174    -159.889     225.942
  H      377.543    -167.823     224.461
  H      380.290    -161.994     224.196
  H      376.934    -163.223     223.374
  H      377.546    -162.713     226.352
  H      375.716    -161.174     226.420
  H      376.197    -160.113     223.835
  H      376.803    -158.944     225.958
  H      382.022    -167.956     224.855
  H      382.609    -166.291     224.760
  H      378.192    -160.044     226.150
  P      373.377    -161.465     225.448
  C      372.898    -163.411     227.096
  O      373.372    -162.082     226.928
  O      372.282    -162.336     224.669
  O      373.075    -160.006     225.363
  H      371.541    -161.766     224.387
  H      372.955    -163.682     228.130
  H      373.501    -164.080     226.518
  H      371.882    -163.472     226.767

 6  7  8  9  10  11  12  13  14  15  25  28  32  33  34  35 0
 6-311+G(2d,p)
 ****
 36  39  40 0
 6-311+G(2d,p)
 ****
 1  2  3  4  5  16  17  18  19  20  21  22  23  24 0
 3-21G
 ****
 26  27  29  30  31  37  38  41  42  43  44  45  46  47 0
 3-21G
 ****
 48 0
 3-21G
 ****


