%nproc=1
%NoSave
%Mem=1900MB
#P OB98/GEN NMR

erre ene a

0 1
  C     -361.792    -384.133     395.108
  O     -361.479    -383.640     393.815
  H     -362.408    -385.030     395.000
  H     -362.361    -383.384     395.667
  H     -360.878    -384.392     395.648
  P     -360.559    -382.327     393.754
  C     -362.005    -381.670     391.693
  O     -360.701    -381.747     392.263
  C     -361.951    -380.882     390.389
  O     -361.233    -379.644     390.603
  C     -361.207    -381.587     389.268
  O     -361.991    -382.590     388.640
  C     -360.871    -380.417     388.348
  O     -361.970    -380.092     387.488
  C     -360.614    -379.283     389.348
  N     -356.740    -376.133     388.254
  C     -358.057    -376.064     387.988
  N     -359.036    -376.939     388.323
  C     -358.518    -377.961     389.040
  C     -357.197    -378.165     389.387
  C     -356.274    -377.186     388.969
  N     -354.922    -377.264     389.215
  N     -357.055    -379.356     390.085
  C     -358.268    -379.851     390.163
  N     -359.192    -379.043     389.546
  O     -359.073    -382.923     393.788
  O     -360.788    -381.338     394.849
  H     -361.768    -379.220     387.102
  H     -358.715    -382.853     394.691
  H     -358.380    -375.194     387.415
  H     -358.534    -380.783     390.639
  H     -361.055    -378.336     389.019
  H     -360.012    -380.652     387.719
  H     -360.265    -382.022     389.648
  H     -362.980    -380.632     390.078
  H     -362.690    -381.175     392.394
  H     -362.370    -382.691     391.509
  H     -354.319    -376.568     388.830
  H     -354.560    -378.106     389.655
  P     -361.331    -384.031     388.414
  C     -361.887    -384.292     385.876
  O     -362.123    -384.725     387.211
  O     -361.785    -384.870     389.704
  O     -359.851    -384.012     388.261
  H     -361.071    -385.481     389.972
  H     -362.496    -384.860     385.204
  H     -360.856    -384.437     385.631
  H     -362.132    -383.254     385.789

 6  7  8  9  10  11  12  13  14  15  25  28  32  33  34  35 0
 6-311+G(2d,p)
 ****
 36  37  40 0
 6-311+G(2d,p)
 ****
 1  2  3  4  5  16  17  18  19  20  21  22  23  24 0
 3-21G
 ****
 26  27  29  30  31  38  39 41  42  43  44  45  46  47  48 0
 3-21G
 ****


