%nproc=1
%NoSave
%Mem=1900MB
#P OB98/GEN NMR

erre ene a

0 1
  C        7.125      91.150      46.927
  O        5.981      90.633      46.281
  P        5.738      89.074      46.043
  C        7.127      87.273      44.786
  O        6.640      88.610      44.793
  C        8.470      87.129      44.054
  O        9.484      87.874      44.758
  C        8.922      85.665      44.065
  O        8.428      84.761      43.098
  C       10.441      85.722      44.171
  O       11.087      85.569      42.907
  C       10.705      87.120      44.741
  N       14.584      85.690      47.677
  C       14.518      85.768      46.299
  N       15.552      85.216      45.626
  N       13.522      86.314      45.652
  C       12.519      86.735      46.459
  C       12.477      86.722      47.834
  C       13.601      86.153      48.538
  O       13.661      85.988      49.754
  N       11.269      87.163      48.310
  C       10.563      87.405      47.227
  N       11.266      87.121      46.078
  O        4.325      88.592      46.123
  O        6.536      88.434      47.292
  H       12.043      85.467      43.069
  H        6.053      87.632      47.569
  H       15.342      85.185      48.118
  H        9.535      87.750      47.214
  H       11.405      87.671      44.101
  H       10.816      84.913      44.808
  H       16.260      84.662      46.085
  H        8.591      85.240      45.019
  H       15.457      85.105      44.622
  H        8.421      87.567      43.055
  H        6.363      86.646      44.318
  H        7.243      86.920      45.816
  P        8.239      83.183      43.285
  C        9.666      81.405      44.442
  O        9.672      82.536      43.590
  O        7.916      82.647      41.809
  O        7.154      82.786      44.230
  H        7.451      81.790      41.865
  H       10.678      81.239      44.821
  H        9.350      80.523      43.878
  H        8.990      81.555      45.290
  H        7.060      92.217      46.967
  H        8.001      90.866      46.382
  H        7.180      90.759      47.921

 3  4  5  6  7  8  9  10  11  12  23  26  30  31 0
 6-311+G(2d,p)
 ****
 33  35  36  37  38 0
 6-311+G(2d,p)
 ****
 1  2  13  14  15  16  17  18  19  20  21  22  24  25 0
 3-21G
 ****
 27  28  29  32  34  39  40  41  42  43  44  45  46  47  48  49 0
 3-21G
 ****


