%nproc=1
%NoSave
%Mem=1900MB
#P OB98/GEN NMR

erre ene a

0 1
  C      869.073     357.487    -339.068
  O      867.661     357.415    -338.937
  P      866.771     357.578    -340.266
  C      865.154     355.763    -339.328
  O      865.300     357.054    -339.899
  C      863.675     355.385    -339.224
  O      863.118     356.011    -338.033
  C      862.811     355.833    -340.412
  O      861.782     354.850    -340.568
  C      862.206     357.129    -339.930
  O      861.024     357.490    -340.640
  C      861.997     356.820    -338.448
  N      859.419     361.091    -337.592
  C      859.253     360.140    -338.586
  N      858.215     360.333    -339.426
  N      860.034     359.102    -338.737
  C      861.009     359.030    -337.801
  C      861.303     359.926    -336.802
  C      860.413     361.044    -336.623
  O      860.474     361.868    -335.705
  N      862.435     359.561    -336.111
  C      862.780     358.408    -336.653
  N      861.919     358.026    -337.646
  O      867.356     356.442    -341.222
  O      866.793     358.936    -340.895
  H      861.238     357.518    -341.594
  H      868.043     356.796    -341.816
  H      858.774     361.857    -337.510
  H      863.632     357.807    -336.362
  H      861.072     356.242    -338.274
  H      862.931     357.945    -340.055
  H      857.563     361.094    -339.354
  H      863.380     355.944    -341.340
  H      858.057     359.643    -340.149
  H      863.605     354.295    -339.082
  H      865.578     355.769    -338.313
  H      865.701     355.032    -339.926
  P      861.760     353.993    -341.931
  C      859.786     352.486    -341.199
  O      860.274     353.440    -342.130
  O      862.601     352.687    -341.547
  O      862.368     354.690    -343.109
  H      863.074     352.363    -342.324
  H      858.687     352.512    -341.216
  H      860.124     352.706    -340.190
  H      860.129     351.486    -341.490
  H      869.527     357.362    -338.107
  H      869.346     358.440    -339.470
  H      869.410     356.713    -339.725

 3  4  5  6  7  8  9  10  11  12  23  26  30  31 0
 6-311+G(2d,p)
 ****
 33  35  36  37  38 0
 6-311+G(2d,p)
 ****
 1  2  13  14  15  16  17  18  19  20  21  22  24  25 0
 3-21G
 ****
 27  28  29  32  34  39  40  41  42  43  44  45  46  47  48  49 0
 3-21G
 ****


