%nproc=1
%NoSave
%Mem=1900MB
#P OB98/GEN NMR

erre ene a

0 1
  C       71.040    -143.096     -89.978
  O       69.842    -143.723     -90.397
  H       71.886    -143.695     -90.322
  H       71.071    -143.035     -88.887
  H       71.112    -142.097     -90.413
  P       68.473    -142.982     -90.008
  C       67.500    -143.450     -92.362
  O       67.374    -143.658     -90.961
  C       66.325    -144.083     -93.105
  O       66.511    -145.504     -93.231
  C       64.977    -143.902     -92.417
  O       64.439    -142.618     -92.690
  C       64.169    -145.005     -93.082
  O       63.730    -144.569     -94.383
  C       65.203    -146.136     -93.228
  N       62.894    -150.394     -91.524
  C       62.575    -149.536     -92.518
  N       63.211    -148.402     -92.887
  C       64.284    -148.183     -92.108
  C       64.732    -148.970     -91.058
  C       63.992    -150.130     -90.778
  N       64.326    -151.008     -89.769
  N       65.866    -148.427     -90.490
  C       66.127    -147.361     -91.219
  N       65.179    -147.149     -92.189
  O       68.522    -141.493     -90.005
  O       68.155    -143.655     -88.589
  H       63.110    -145.243     -94.724
  H       68.385    -144.601     -88.600
  H       61.694    -149.795     -93.095
  H       66.994    -146.721     -91.099
  H       65.092    -146.665     -94.181
  H       63.272    -145.263     -92.513
  H       65.045    -144.104     -91.343
  H       66.306    -143.666     -94.120
  H       68.442    -143.874     -92.726
  H       63.651    -151.718     -89.526
  H       65.069    -150.745     -89.136
  H       67.518    -142.369     -92.534
  P       63.379    -141.946     -91.691
  C       64.111    -139.666     -92.629
  O       63.010    -140.512     -92.312
  O       63.794    -141.914     -90.260
  O       62.037    -142.787     -91.902
  H       61.575    -142.909     -91.051
  H       63.748    -138.744     -93.033
  H       64.736    -140.150     -93.350
  H       64.676    -139.469     -91.742

 6  7  8  9  10  11  12  13  14  15  25  28  32  33  34  35 0
 6-311+G(2d,p)
 ****
 36  39  40 0
 6-311+G(2d,p)
 ****
 1  2  3  4  5  16  17  18  19  20  21  22  23  24 0
 3-21G
 ****
 26  27  29  30  31  37  38  41  42  43  44  45  46  47 0
 3-21G
 ****
 48 0
 3-21G
 ****


