%nproc=1
%NoSave
%Mem=1900MB
#P OB98/GEN NMR

erre ene a

0 1
  C     -541.356    -397.349      92.886
  O     -542.668    -396.821      92.806
  H     -540.751    -396.906      92.092
  H     -541.378    -398.436      92.755
  H     -540.910    -397.098      93.852
  P     -543.733    -397.374      93.874
  C     -545.613    -397.114      92.110
  O     -545.133    -396.750      93.402
  C     -547.137    -397.209      92.115
  O     -547.569    -398.411      92.786
  C     -547.832    -396.051      92.826
  O     -547.960    -394.942      91.948
  C     -549.187    -396.673      93.130
  O     -550.024    -396.619      91.956
  C     -548.828    -398.135      93.447
  N     -551.322    -399.456      97.733
  C     -551.772    -399.040      96.537
  N     -551.051    -398.648      95.459
  C     -549.730    -398.734      95.710
  C     -549.131    -399.142      96.893
  C     -549.987    -399.526      97.940
  N     -549.524    -399.943      99.174
  N     -547.755    -399.095      96.782
  C     -547.536    -398.727      95.535
  N     -548.694    -398.459      94.854
  O     -543.370    -397.178      95.309
  O     -543.860    -398.905      93.412
  H     -550.746    -397.259      92.099
  H     -543.872    -398.966      92.442
  H     -552.847    -399.009      96.415
  H     -546.550    -398.652      95.075
  H     -549.569    -398.837      93.038
  H     -549.725    -396.149      93.923
  H     -547.339    -395.792      93.762
  H     -547.477    -397.287      91.073
  H     -545.183    -398.084      91.810
  H     -550.199    -400.007      99.915
  H     -548.531    -399.869      99.358
  H     -545.273    -396.355      91.402
  P     -547.306    -393.524      92.310
  C     -549.552    -392.459      91.652
  O     -548.142    -392.448      91.457
  O     -545.821    -393.465      92.153
  O     -547.780    -393.239      93.807
  H     -547.219    -392.540      94.209
  H     -550.003    -391.707      91.038
  H     -549.771    -392.259      92.680
  H     -549.942    -393.419      91.384

 6  7  8  9  10  11  12  13  14  15  25  28  32  33  34  35 0
 6-311+G(2d,p)
 ****
 36  39  40 0
 6-311+G(2d,p)
 ****
 1  2  3  4  5  16  17  18  19  20  21  22  23  24 0
 3-21G
 ****
 26  27  29  30  31  37  38  41  42  43  44  45  46  47 0
 3-21G
 ****
 48 0
 3-21G
 ****


