%nproc=1
%NoSave
%Mem=1900MB
#P OB98/GEN NMR

erre ene a

0 1
  C      950.368    -412.935    1122.550
  O      950.043    -413.356    1121.231
  P      948.600    -414.000    1120.899
  C      947.315    -416.044    1121.742
  O      948.559    -415.374    1121.720
  C      947.537    -417.592    1121.625
  O      948.088    -418.064    1122.887
  C      946.288    -418.426    1121.366
  O      945.911    -418.516    1119.993
  C      946.777    -419.787    1121.874
  O      947.604    -420.375    1120.858
  C      947.617    -419.420    1123.092
  N      945.161    -422.572    1126.290
  C      945.857    -422.780    1125.135
  N      946.443    -421.894    1124.333
  C      946.336    -420.646    1124.824
  C      945.667    -420.280    1125.991
  C      945.025    -421.280    1126.733
  N      944.382    -421.053    1127.912
  N      945.775    -418.914    1126.210
  C      946.472    -418.449    1125.165
  N      946.850    -419.485    1124.319
  O      948.295    -414.109    1119.438
  O      947.566    -413.059    1121.698
  H      948.219    -419.676    1120.498
  H      946.645    -413.197    1121.367
  H      945.887    -423.830    1124.801
  H      946.758    -417.457    1124.979
  H      948.509    -420.039    1123.204
  H      945.956    -420.485    1122.043
  H      945.450    -418.087    1121.993
  H      948.300    -417.781    1120.845
  H      946.722    -415.714    1120.859
  H      944.081    -421.878    1128.431
  H      944.460    -420.120    1128.352
  H      946.776    -415.818    1122.659
  P      944.422    -419.077    1119.683
  C      943.398    -421.485    1119.514
  O      944.536    -420.688    1119.825
  O      943.839    -418.570    1118.409
  O      943.598    -418.647    1121.003
  H      943.876    -419.120    1121.834
  H      943.732    -422.510    1119.498
  H      942.999    -421.255    1118.528
  H      942.644    -421.377    1120.297
  H      951.362    -412.539    1122.563
  H      950.308    -413.770    1123.216
  H      949.679    -412.179    1122.863

 3  4  5  6  7  8  9  10  11  12  22  25  29  30  31  32 0
 6-311+G(2d,p)
 ****
 33  36  37 0
 6-311+G(2d,p)
 ****
 1  2  13  14  15  16  17  18  19  20  21  23  24  26 0
 3-21G
 ****
 27  28  34  35  38  39  40  41  42  43  44  45  46  47  48 0
 3-21G
 ****


