%nproc=1
%NoSave
%Mem=1900MB
#P OB98/GEN NMR

erre ene a

0 1
  C      -57.753    -185.816    -220.958
  O      -57.023    -185.255    -219.862
  P      -56.061    -186.249    -219.030
  C      -58.289    -187.160    -217.992
  O      -57.011    -187.449    -218.533
  C      -58.564    -187.999    -216.741
  O      -58.672    -189.412    -217.119
  C      -57.496    -187.894    -215.656
  O      -58.174    -187.937    -214.389
  C      -56.661    -189.152    -215.851
  O      -55.942    -189.507    -214.674
  C      -57.755    -190.142    -216.269
  N      -57.226    -191.322    -216.939
  C      -56.897    -192.412    -216.139
  O      -56.970    -192.384    -214.910
  N      -56.439    -193.526    -216.791
  C      -56.201    -193.620    -218.139
  O      -55.790    -194.645    -218.676
  C      -56.454    -192.400    -218.923
  C      -56.942    -191.325    -218.295
  O      -55.785    -185.387    -217.716
  O      -54.846    -186.660    -219.797
  H      -56.550    -184.865    -217.420
  H      -55.519    -190.375    -214.820
  H      -56.226    -194.338    -216.235
  H      -56.225    -192.420    -219.980
  H      -57.121    -190.400    -218.836
  H      -58.326    -190.471    -215.385
  H      -55.948    -189.003    -216.662
  H      -56.911    -186.968    -215.719
  H      -59.544    -187.704    -216.342
  H      -59.060    -187.379    -218.738
  H      -58.352    -186.089    -217.772
  P      -58.201    -186.598    -213.488
  C      -56.897    -187.753    -211.531
  O      -56.968    -186.699    -212.462
  O      -59.475    -186.916    -212.557
  O      -58.345    -185.320    -214.254
  H      -59.459    -187.811    -212.180
  H      -55.889    -187.777    -211.098
  H      -57.088    -188.725    -212.010
  H      -57.619    -187.594    -210.726
  H      -58.346    -185.054    -221.419
  H      -58.391    -186.597    -220.599
  H      -57.068    -186.217    -221.675

 3  4  5  6  7  8  9  10  11  12  13  24  28  29  30  31  32 0
 6-311+G(2d,p)
 ****
 33  34 0
 6-311+G(2d,p)
 ****
 1  2  14  15  16  17  18  19  20  21  22  23  25  26  27 0
 3-21G
 ****
 35  36  37  38  39  40  41  42  43  44  45 0
 3-21G
 ****


