%nproc=1
%NoSave
%Mem=1900MB
#P OB98/GEN NMR

erre ene a

0 1
  C      531.005     207.555     100.802
  O      531.551     207.082      99.567
  P      531.743     205.495      99.403
  C      530.739     205.198      97.015
  O      531.899     205.158      97.847
  C      531.102     204.777      95.587
  O      532.012     205.705      94.982
  C      531.803     203.429      95.522
  O      530.871     202.376      95.663
  C      532.463     203.489      94.153
  O      531.607     202.970      93.119
  C      532.715     205.001      93.943
  N      534.131     205.342      93.941
  C      534.770     205.307      92.697
  O      534.140     204.977      91.687
  N      536.106     205.612      92.635
  C      536.758     205.902      93.730
  N      538.078     206.197      93.601
  C      536.125     205.928      95.062
  C      534.824     205.632      95.097
  O      530.300     204.914      99.766
  O      532.813     204.923     100.285
  H      532.119     203.050      92.289
  H      530.386     204.046     100.199
  H      536.704     206.169      95.939
  H      534.281     205.628      96.035
  H      532.286     205.334      92.990
  H      533.384     202.892      94.129
  H      532.572     203.370      96.302
  H      530.173     204.751      94.989
  H      538.477     206.170      92.662
  H      530.322     206.208      97.014
  H      538.671     206.429      94.379
  H      529.974     204.542      97.440
  P      531.302     201.120      96.552
  C      529.426     201.331      98.292
  O      529.930     200.580      97.201
  O      532.008     201.810      97.802
  O      532.175     200.086      95.905
  H      532.405     201.147      98.386
  H      528.399     200.993      98.505
  H      529.394     202.398      98.054
  H      530.036     201.160      99.181
  H      530.933     208.622     100.774
  H      531.643     207.261     101.610
  H      530.031     207.135     100.946

 3  4  5  6  7  8  9  10  11  12  13  21  23  27  28  29  30  32 0
 6-311+G(2d,p)
 ****
 34  35 0
 6-311+G(2d,p)
 ****
 1  2  14  15  16  17  18  19  20  22  24  25  26 0
 3-21G
 ****
 31  33  36  37  38  39  40  41  42  43  44  45  46 0
 3-21G
 ****


