%nproc=1
%NoSave
%Mem=1900MB
#P OB98/GEN NMR

erre ene a

0 1
  C      727.564     223.774    -214.633
  O      727.058     224.763    -215.504
  H      727.860     222.903    -215.222
  H      726.793     223.472    -213.920
  H      728.440     224.155    -214.096
  P      726.561     226.133    -214.835
  C      728.745     227.311    -215.595
  O      727.887     226.983    -214.508
  C      729.979     228.064    -215.091
  O      729.579     229.401    -214.673
  C      730.668     227.390    -213.896
  O      732.085     227.551    -214.033
  C      730.192     228.218    -212.718
  O      731.080     228.128    -211.607
  C      730.115     229.605    -213.355
  N      730.269     233.253    -209.894
  C      731.291     232.561    -210.513
  N      732.554     232.882    -210.151
  N      731.095     231.630    -211.406
  C      729.785     231.422    -211.686
  C      728.683     232.030    -211.141
  C      728.915     233.052    -210.134
  O      728.051     233.682    -209.536
  N      727.521     231.525    -211.669
  C      727.926     230.606    -212.531
  N      729.290     230.511    -212.581
  O      726.055     225.677    -213.386
  O      725.508     226.877    -215.593
  H      731.123     227.188    -211.329
  H      725.331     226.258    -213.073
  H      730.474     233.956    -209.206
  H      727.277     229.985    -213.140
  H      731.103     230.076    -213.453
  H      729.201     227.883    -212.392
  H      732.782     233.616    -209.497
  H      730.424     226.331    -213.790
  H      733.321     232.399    -210.602
  H      730.672     228.193    -215.927
  H      728.195     227.943    -216.301
  H      729.052     226.390    -216.102
  P      732.848     226.561    -215.049
  C      733.815     228.602    -216.335
  O      733.141     227.355    -216.418
  O      731.700     225.521    -215.457
  O      734.022     225.868    -214.446
  H      731.881     224.658    -215.040
  H      733.937     229.007    -217.318
  H      734.776     228.459    -215.886
  H      733.240     229.279    -215.739

 6  7  8  9  10  11  12  13  14  15  26  29  33  34 0
 6-311+G(2d,p)
 ****
 36  38  39  40  41 0
 6-311+G(2d,p)
 ****
 1  2  3  4  5  16  17  18  19  20  21  22  23  24  25 0
 3-21G
 ****
 27  28  30  31  32  35  37  42  43  44  45  46  47 0
 3-21G
 ****
 48  49 0
 3-21G
 ****


