%nproc=1
%NoSave
%Mem=1900MB
#P OB98/GEN NMR

erre ene a

0 1
  C        4.004    -196.587     210.443
  O        3.083    -196.292     211.474
  H        4.316    -197.629     210.542
  H        4.888    -195.947     210.519
  H        3.533    -196.459     209.464
  P        2.558    -194.780     211.618
  C        0.182    -195.606     210.979
  O        1.253    -194.724     210.674
  C       -1.103    -194.815     211.202
  O       -1.485    -194.092     210.014
  C       -2.326    -195.663     211.545
  O       -2.312    -196.170     212.870
  C       -3.429    -194.639     211.327
  O       -3.466    -193.727     212.437
  C       -2.932    -193.931     210.040
  N       -3.530    -194.477     208.821
  C       -4.883    -194.190     208.603
  O       -5.515    -193.507     209.413
  N       -5.500    -194.706     207.490
  C       -4.832    -195.463     206.676
  N       -5.502    -195.994     205.614
  C       -3.401    -195.783     206.858
  C       -2.821    -195.267     207.937
  O        3.567    -193.706     211.379
  O        1.899    -194.723     213.077
  H       -4.213    -193.118     212.282
  H        1.569    -193.804     213.220
  H       -2.893    -196.425     206.152
  H       -1.778    -195.470     208.151
  H       -3.136    -192.854     210.085
  H       -4.426    -195.089     211.241
  H       -2.453    -196.475     210.818
  H       -0.904    -194.066     211.985
  H       -6.498    -195.789     205.545
  H        0.455    -196.179     211.872
  H       -5.148    -196.795     205.107
  H        0.021    -196.303     210.150
  P       -3.073    -197.553     213.156
  C       -0.823    -198.784     212.679
  O       -2.219    -198.708     212.438
  O       -4.387    -197.432     212.250
  O       -3.390    -197.835     214.595
  H       -5.138    -197.083     212.761
  H       -0.410    -199.603     212.128
  H       -0.649    -198.933     213.724
  H       -0.357    -197.873     212.366

 6  7  8  9  10  11  12  13  14  15  16  26  30  31  32  33  35 0
 6-311+G(2d,p)
 ****
 37  38 0
 6-311+G(2d,p)
 ****
 1  2  3  4  5  17  18  19  20  21  22  23  24  25 0
 3-21G
 ****
 27  28  29  34  36  39  40  41  42  43  44  45  46 0
 3-21G
 ****


