%nproc=1
%NoSave
%Mem=1900MB
#P OB98/GEN NMR

erre ene a

0 1
  C        2.732     -92.153     146.146
  O        3.717     -91.134     146.060
  P        3.933     -90.419     144.640
  C        6.174     -91.669     144.172
  O        5.515     -90.428     144.355
  C        7.130     -91.601     142.976
  O        7.809     -92.877     142.851
  C        6.454     -91.315     141.627
  O        7.389     -90.564     140.844
  C        6.278     -92.701     141.031
  O        6.126     -92.668     139.615
  C        7.557     -93.378     141.519
  N        8.166     -97.659     138.888
  C        8.317     -96.343     138.487
  N        8.749     -96.149     137.219
  N        8.070     -95.314     139.254
  C        7.660     -95.667     140.498
  C        7.436     -96.928     141.002
  C        7.751     -98.057     140.155
  O        7.715     -99.235     140.495
  N        6.940     -96.879     142.277
  C        6.939     -95.596     142.574
  N        7.414     -94.823     141.545
  O        3.616     -88.886     144.959
  O        3.111     -90.956     143.509
  H        5.269     -92.235     139.414
  H        2.682     -88.671     144.762
  H        8.391     -98.409     138.260
  H        6.619     -95.168     143.510
  H        8.427     -93.140     140.894
  H        5.390     -93.179     141.457
  H        8.987     -96.895     136.584
  H        5.508     -90.770     141.720
  H        8.897     -95.194     136.909
  H        7.893     -90.845     143.190
  H        5.423     -92.444     143.972
  H        6.714     -91.939     145.088
  P        6.894     -89.175     140.210
  C        7.052     -90.260     137.859
  O        7.360     -89.149     138.680
  O        7.861     -88.102     140.907
  O        5.458     -88.847     140.466
  H        7.386     -87.258     141.020
  H        7.062     -89.942     136.813
  H        6.062     -90.672     138.094
  H        7.809     -91.040     138.001
  H        2.700     -92.535     147.145
  H        2.977     -92.944     145.469
  H        1.776     -91.747     145.889

 3  4  5  6  7  8  9  10  11  12  23  26  30  31 0
 6-311+G(2d,p)
 ****
 33  35  36  37  38 0
 6-311+G(2d,p)
 ****
 1  2  13  14  15  16  17  18  19  20  21  22  24  25 0
 3-21G
 ****
 27  28  29  32  34  39  40  41  42  43  44  45  46  47  48  49 0
 3-21G
 ****


