%nproc=1
%NoSave
%Mem=1900MB
#P OB98/GEN NMR

erre ene a

0 1
  C       46.075      92.447     379.354
  O       46.479      93.316     380.394
  P       45.782      93.250     381.832
  C       47.156      91.110     382.117
  O       45.905      91.739     382.360
  C       47.746      90.529     383.401
  O       48.824      89.610     383.057
  C       48.322      91.566     384.374
  O       48.089      91.070     385.697
  C       49.812      91.517     384.069
  O       50.611      92.027     385.131
  C       49.988      90.028     383.803
  N       53.987      86.879     383.339
  C       52.990      86.935     384.248
  N       51.972      87.819     384.315
  C       52.054      88.714     383.318
  C       53.030      88.804     382.340
  C       54.031      87.817     382.363
  N       55.039      87.724     381.428
  N       52.801      89.898     381.526
  C       51.708      90.452     382.007
  N       51.184      89.734     383.045
  O       44.403      93.822     381.900
  O       46.783      94.050     382.786
  H       50.251      92.894     385.394
  H       46.404      94.927     383.009
  H       52.999      86.161     385.011
  H       51.252      91.365     381.640
  H       50.026      89.445     384.730
  H       50.022      92.112     383.171
  H       47.899      92.568     384.257
  H       46.967      89.930     383.893
  H       47.843      91.861     381.718
  H       55.619      86.905     381.459
  H       54.944      88.234     380.551
  H       47.036      90.318     381.364
  P       48.347      92.023     386.963
  C       45.988      93.014     386.857
  O       47.379      93.283     386.787
  O       49.776      92.344     387.240
  O       47.673      91.217     388.177
  H       48.015      91.564     389.025
  H       45.644      92.628     385.896
  H       45.455      93.945     387.082
  H       45.769      92.286     387.643
  H       46.656      92.645     378.478
  H       45.039      92.606     379.138
  H       46.224      91.432     379.659

 3  4  5  6  7  8  9  10  11  12  22  25  29  30  31  32 0
 6-311+G(2d,p)
 ****
 33  36  37 0
 6-311+G(2d,p)
 ****
 1  2  13  14  15  16  17  18  19  20  21  23  24  26 0
 3-21G
 ****
 27  28  34  35  38  39  40  41  42  43  44  45  46  47  48 0
 3-21G
 ****


