%nproc=1
%NoSave
%Mem=1900MB
#P OB98/GEN NMR

erre ene a

0 1
  C     -984.060     701.225     539.494
  O     -982.804     701.373     538.865
  H     -984.435     700.221     539.297
  H     -984.766     701.956     539.091
  H     -983.960     701.362     540.578
  P     -982.072     702.792     539.055
  C     -979.697     701.835     539.589
  O     -980.527     702.546     538.683
  C     -978.530     701.173     538.847
  O     -979.013     699.957     538.217
  C     -977.930     702.046     537.727
  O     -976.548     701.697     537.589
  C     -978.710     701.566     536.521
  O     -978.093     702.004     535.322
  C     -978.724     700.070     536.799
  N     -979.510     697.359     532.543
  C     -978.398     697.901     533.061
  N     -978.254     698.592     534.211
  C     -979.436     698.698     534.850
  C     -980.658     698.192     534.441
  C     -980.678     697.487     533.225
  N     -981.815     696.946     532.672
  N     -981.653     698.506     535.361
  C     -981.026     699.187     536.307
  N     -979.701     699.331     536.037
  O     -982.049     702.987     540.645
  O     -982.712     703.942     538.357
  H     -978.351     701.445     534.565
  H     -982.812     703.524     540.922
  H     -977.480     697.751     532.484
  H     -981.495     699.597     537.196
  H     -977.738     699.618     536.625
  H     -979.724     701.974     536.519
  H     -978.020     703.129     537.929
  H     -977.765     700.881     539.579
  H     -980.312     701.064     540.089
  H     -979.312     702.519     540.351
  H     -981.755     696.471     531.791
  H     -982.700     697.052     533.172
  P     -975.481     702.846     537.198
  C     -973.409     701.739     538.368
  O     -974.017     702.193     537.165
  O     -975.417     703.710     538.544
  O     -975.842     703.693     536.028
  H     -975.181     704.628     538.335
  H     -972.442     701.337     538.149
  H     -974.019     700.980     538.811
  H     -973.309     702.559     539.049

 6  7  8  9  10  11  12  13  14  15  25  28  32  33  34  35 0
 6-311+G(2d,p)
 ****
 36  37  40 0
 6-311+G(2d,p)
 ****
 1  2  3  4  5  16  17  18  19  20  21  22  23  24 0
 3-21G
 ****
 26  27  29  30  31  38  39 41  42  43  44  45  46  47  48 0
 3-21G
 ****


