%nproc=1
%NoSave
%Mem=1900MB
#P OB98/GEN NMR

erre ene a

0 1
  C      155.023    -247.129    -281.424
  O      156.193    -246.616    -280.833
  H      154.186    -246.961    -280.738
  H      155.117    -248.205    -281.592
  H      154.811    -246.619    -282.367
  P      157.595    -246.765    -281.605
  C      157.745    -249.322    -281.425
  O      157.544    -248.218    -282.298
  C      157.883    -250.626    -282.211
  O      156.619    -250.939    -282.856
  C      158.961    -250.579    -283.305
  O      159.772    -251.753    -283.235
  C      158.158    -250.590    -284.597
  O      158.895    -251.093    -285.706
  C      156.942    -251.420    -284.173
  N      155.832    -251.278    -285.106
  C      155.645    -252.330    -286.007
  O      156.394    -253.309    -285.981
  N      154.655    -252.227    -286.950
  C      153.945    -251.147    -287.017
  N      152.998    -251.096    -287.992
  C      154.124    -249.999    -286.103
  C      155.074    -250.133    -285.178
  O      158.800    -246.509    -280.764
  O      157.480    -245.775    -282.855
  H      159.612    -250.456    -285.920
  H      158.388    -245.543    -283.163
  H      153.510    -249.118    -286.204
  H      155.281    -249.343    -284.463
  H      157.200    -252.484    -284.095
  H      157.845    -249.565    -284.836
  H      159.601    -249.699    -283.238
  H      158.074    -251.440    -281.500
  H      152.912    -251.901    -288.602
  H      156.898    -249.379    -280.733
  H      152.402    -250.299    -288.158
  H      158.664    -249.149    -280.857
  P      161.344    -251.515    -283.015
  C      162.223    -250.975    -285.398
  O      161.846    -250.471    -284.126
  O      161.994    -252.904    -283.471
  O      161.704    -251.173    -281.609
  H      162.347    -253.375    -282.692
  H      162.532    -250.165    -286.025
  H      161.389    -251.474    -285.845
  H      163.032    -251.666    -285.283

 6  7  8  9  10  11  12  13  14  15  16  26  30  31  32  33  35 0
 6-311+G(2d,p)
 ****
 37  38 0
 6-311+G(2d,p)
 ****
 1  2  3  4  5  17  18  19  20  21  22  23  24  25 0
 3-21G
 ****
 27  28  29  34  36  39  40  41  42  43  44  45  46 0
 3-21G
 ****


