%nproc=1
%NoSave
%Mem=1900MB
#P OB98/GEN NMR

erre ene a

0 1
  C       16.951     199.323     -33.637
  O       17.803     199.176     -32.520
  H       16.047     198.731     -33.469
  H       17.444     198.962     -34.545
  H       16.669     200.373     -33.758
  P       19.219     199.927     -32.594
  C       20.335     197.649     -33.052
  O       20.128     198.977     -33.518
  C       21.827     197.315     -33.043
  O       22.335     197.434     -34.399
  C       22.659     198.248     -32.156
  O       23.714     197.499     -31.550
  C       23.253     199.232     -33.150
  O       24.436     199.853     -32.658
  C       23.456     198.335     -34.369
  N       26.458     201.388     -37.122
  C       26.699     200.623     -36.036
  N       25.841     199.817     -35.377
  C       24.639     199.805     -35.985
  C       24.246     200.529     -37.095
  C       25.221     201.364     -37.670
  N       24.977     202.175     -38.755
  N       22.919     200.281     -37.386
  C       22.521     199.413     -36.473
  N       23.524     199.113     -35.593
  O       19.821     200.300     -31.281
  O       18.895     201.151     -33.573
  H       24.782     200.455     -33.351
  H       18.395     200.858     -34.359
  H       27.709     200.671     -35.638
  H       21.525     198.991     -36.399
  H       24.378     197.742     -34.308
  H       22.526     200.024     -33.368
  H       22.070     198.747     -31.386
  H       21.953     196.268     -32.747
  H       19.805     196.938     -33.694
  H       25.734     202.741     -39.106
  H       24.064     202.168     -39.184
  H       19.922     197.579     -32.040
  P       23.441     196.758     -30.155
  C       23.610     198.886     -28.712
  O       22.785     197.811     -29.132
  O       24.584     195.976     -29.603
  O       22.203     195.799     -30.501
  H       22.346     194.930     -30.077
  H       23.064     199.513     -28.038
  H       23.913     199.457     -29.564
  H       24.476     198.499     -28.217

 6  7  8  9  10  11  12  13  14  15  25  28  32  33  34  35 0
 6-311+G(2d,p)
 ****
 36  39  40 0
 6-311+G(2d,p)
 ****
 1  2  3  4  5  16  17  18  19  20  21  22  23  24 0
 3-21G
 ****
 26  27  29  30  31  37  38  41  42  43  44  45  46  47 0
 3-21G
 ****
 48 0
 3-21G
 ****


