%nproc=1
%NoSave
%Mem=1900MB
#P OB98/GEN NMR

erre ene a

0 1
  C     -213.334    -201.991    -764.309
  O     -212.173    -202.563    -764.877
  H     -213.979    -202.805    -763.954
  H     -213.888    -201.418    -765.051
  H     -213.067    -201.355    -763.459
  P     -211.137    -201.607    -765.658
  C     -210.875    -200.925    -768.116
  O     -211.415    -201.892    -767.227
  C     -210.652    -201.513    -769.519
  O     -209.759    -202.660    -769.425
  C     -211.944    -201.990    -770.206
  O     -211.967    -201.511    -771.550
  C     -211.830    -203.513    -770.173
  O     -212.603    -204.126    -771.205
  C     -210.308    -203.698    -770.272
  N     -209.867    -205.022    -769.858
  C     -210.312    -206.101    -770.636
  O     -211.071    -205.911    -771.587
  N     -209.910    -207.368    -770.291
  C     -209.191    -207.562    -769.228
  N     -208.847    -208.843    -768.932
  C     -208.733    -206.450    -768.349
  C     -209.101    -205.220    -768.731
  O     -209.719    -201.748    -765.234
  O     -211.728    -200.129    -765.457
  H     -212.402    -205.100    -771.194
  H     -211.009    -199.468    -765.616
  H     -208.139    -206.661    -767.477
  H     -208.808    -204.354    -768.152
  H     -209.955    -203.513    -771.303
  H     -212.188    -203.886    -769.206
  H     -212.847    -201.649    -769.697
  H     -210.124    -200.775    -770.131
  H     -209.180    -209.573    -769.566
  H     -209.925    -200.554    -767.703
  H     -208.286    -209.107    -768.136
  H     -211.587    -200.088    -768.194
  P     -213.332    -200.817    -772.041
  C     -215.728    -201.589    -772.688
  O     -214.443    -201.971    -772.200
  O     -213.010    -200.383    -773.547
  O     -213.742    -199.649    -771.192
  H     -212.798    -199.433    -773.583
  H     -216.360    -202.451    -772.742
  H     -215.626    -201.160    -773.663
  H     -216.162    -200.870    -772.025

 6  7  8  9  10  11  12  13  14  15  16  26  30  31  32  33  35 0
 6-311+G(2d,p)
 ****
 37  38 0
 6-311+G(2d,p)
 ****
 1  2  3  4  5  17  18  19  20  21  22  23  24  25 0
 3-21G
 ****
 27  28  29  34  36  39  40  41  42  43  44  45  46 0
 3-21G
 ****


