%nproc=1
%NoSave
%Mem=1900MB
#P OB98/GEN NMR

erre ene a

0 1
  C     -996.413    -646.560      35.352
  O     -995.331    -647.459      35.217
  H     -997.331    -647.139      35.482
  H     -996.500    -645.955      34.445
  H     -996.289    -645.906      36.224
  P     -993.848    -646.923      35.474
  C     -992.354    -645.000      34.601
  O     -993.544    -645.762      34.402
  C     -991.693    -644.636      33.265
  O     -992.648    -643.972      32.409
  C     -990.508    -643.686      33.446
  O     -989.273    -644.329      33.706
  C     -990.473    -642.969      32.098
  O     -989.674    -643.684      31.142
  C     -991.951    -642.962      31.674
  N     -994.343    -638.967      29.549
  C     -993.701    -640.018      28.923
  N     -993.662    -639.989      27.574
  N     -993.142    -641.005      29.587
  C     -993.172    -640.856      30.924
  C     -993.761    -639.842      31.660
  C     -994.451    -638.792      30.929
  O     -995.047    -637.844      31.430
  N     -993.550    -640.003      33.008
  C     -992.772    -641.068      33.086
  N     -992.581    -641.660      31.848
  O     -992.916    -648.126      34.943
  O     -993.520    -646.582      36.898
  H     -989.964    -643.408      30.245
  H     -992.098    -648.149      35.460
  H     -994.781    -638.249      29.000
  H     -992.357    -641.475      33.997
  H     -992.053    -643.214      30.607
  H     -990.032    -641.978      32.196
  H     -994.001    -639.205      27.025
  H     -990.707    -642.946      34.222
  H     -993.034    -640.627      27.089
  H     -991.387    -645.563      32.749
  H     -991.687    -645.619      35.201
  H     -992.577    -644.100      35.176
  P     -988.185    -643.655      34.662
  C     -986.919    -641.346      34.743
  O     -987.928    -642.151      34.172
  O     -986.822    -644.405      34.272
  O     -988.470    -643.747      36.132
  H     -986.635    -645.116      34.903
  H     -986.920    -640.385      34.272
  H     -985.967    -641.812      34.600
  H     -987.105    -641.230      35.790

 6  7  8  9  10  11  12  13  14  15  26  29  33  34 0
 6-311+G(2d,p)
 ****
 36  38  39  40  41 0
 6-311+G(2d,p)
 ****
 1  2  3  4  5  16  17  18  19  20  21  22  23  24  25 0
 3-21G
 ****
 27  28  30  31  32  35  37  42  43  44  45  46  47 0
 3-21G
 ****
 48  49 0
 3-21G
 ****


