%nproc=1
%NoSave
%Mem=1900MB
#P OB98/GEN NMR

erre ene a

0 1
  C     -167.508     -20.226     -27.090
  O     -168.615     -19.350     -27.154
  H     -167.178     -20.449     -28.108
  H     -167.792     -21.160     -26.598
  H     -166.686     -19.754     -26.547
  P     -169.296     -18.940     -25.761
  C     -168.298     -16.596     -26.268
  O     -168.587     -17.581     -25.287
  C     -168.838     -15.246     -25.810
  O     -168.380     -14.204     -26.704
  C     -170.357     -15.147     -25.819
  O     -170.943     -15.780     -24.696
  C     -170.548     -13.640     -25.812
  O     -170.475     -13.106     -24.481
  C     -169.363     -13.150     -26.672
  N     -169.782     -12.752     -28.013
  C     -169.633     -11.402     -28.314
  O     -169.182     -10.579     -27.518
  N     -170.061     -11.016     -29.555
  C     -170.643     -11.824     -30.489
  O     -171.070     -11.402     -31.554
  C     -170.760     -13.245     -30.119
  C     -170.338     -13.636     -28.912
  O     -168.731     -20.040     -24.744
  O     -170.787     -18.898     -25.774
  H     -169.417     -20.711     -24.567
  H     -169.524     -13.052     -24.261
  H     -169.972     -10.039     -29.787
  H     -171.211     -13.915     -30.839
  H     -170.434     -14.677     -28.612
  H     -168.881     -12.285     -26.199
  H     -171.521     -13.356     -26.213
  H     -170.758     -15.550     -26.757
  H     -168.442     -15.036     -24.808
  H     -168.778     -16.872     -27.213
  H     -167.215     -16.552     -26.422
  P     -172.541     -15.909     -24.637
  C     -172.695     -17.951     -26.283
  O     -172.994     -16.593     -26.017
  O     -172.981     -14.381     -24.799
  O     -173.044     -16.584     -23.408
  H     -172.400     -13.879     -25.393
  H     -173.077     -18.218     -27.246
  H     -173.147     -18.569     -25.536
  H     -171.634     -18.092     -26.268

 6  7  8  9  10  11  12  13  14  15  16  27  31  32  33  34  35 0
 6-311+G(2d,p)
 ****
 36  37 0
 6-311+G(2d,p)
 ****
 1  2  3  4  5  17  18  19  20  21  22  23  24  25 0
 3-21G
 ****
 26  28  29  30  38  39  40  41  42  43  44  45 0
 3-21G
 ****


