%nproc=1
%NoSave
%Mem=1900MB
#P OB98/GEN NMR

erre ene a

0 1
  C     -606.729     504.099     160.601
  O     -606.032     505.300     160.317
  H     -606.533     503.382     159.798
  H     -607.807     504.277     160.658
  H     -606.371     503.674     161.546
  P     -606.365     506.592     161.209
  C     -608.252     507.128     159.523
  O     -607.898     506.951     160.895
  C     -609.029     508.435     159.317
  O     -609.903     508.664     160.439
  C     -608.146     509.669     159.233
  O     -607.358     509.738     158.064
  C     -609.119     510.794     159.555
  O     -609.841     511.265     158.418
  C     -610.102     510.094     160.533
  N     -609.934     510.566     161.904
  C     -611.054     511.175     162.475
  O     -612.118     511.334     161.875
  N     -610.898     511.635     163.756
  C     -609.739     511.594     164.480
  O     -609.654     512.069     165.615
  C     -608.585     510.971     163.817
  C     -608.735     510.499     162.577
  O     -605.428     507.757     161.044
  O     -606.424     506.019     162.700
  H     -610.436     511.970     158.735
  H     -606.357     506.751     163.366
  H     -611.700     512.068     164.187
  H     -607.649     510.928     164.371
  H     -607.891     510.028     162.070
  H     -611.137     510.289     160.238
  H     -608.612     511.653     159.996
  H     -607.434     509.635     160.071
  H     -609.649     508.330     158.416
  H     -608.885     506.282     159.225
  H     -607.339     507.126     158.908
  P     -605.913     510.423     158.020
  C     -606.876     512.667     157.121
  O     -606.102     512.020     158.125
  O     -604.937     509.885     157.012
  O     -605.346     510.056     159.490
  H     -604.385     509.926     159.398
  H     -606.913     513.717     157.321
  H     -607.869     512.268     157.124
  H     -606.428     512.502     156.163

 6  7  8  9  10  11  12  13  14  15  16  26  31  32  33  34  35 0
 6-311+G(2d,p)
 ****
 36  37 0
 6-311+G(2d,p)
 ****
 1  2  3  4  5  17  18  19  20  21  22  23  24  25 0
 3-21G
 ****
 27  28  29  30  38  39  40  41  42  43  44  45 0
 3-21G
 ****


