%nproc=1
%NoSave
%Mem=1900MB
#P OB98/GEN NMR

erre ene a

0 1
  C     -119.415    -316.971     586.272
  O     -120.618    -316.743     587.009
  P     -121.616    -315.580     586.556
  C     -123.203    -315.110     584.566
  O     -122.504    -316.092     585.320
  C     -124.301    -315.777     583.727
  O     -123.759    -316.821     582.878
  C     -125.353    -316.481     584.578
  O     -126.210    -315.657     585.339
  C     -125.996    -317.429     583.579
  O     -126.994    -316.772     582.802
  C     -124.785    -317.818     582.698
  N     -124.282    -319.159     582.995
  C     -124.743    -320.184     582.177
  O     -125.567    -320.013     581.277
  N     -124.256    -321.434     582.452
  C     -123.397    -321.756     583.463
  O     -123.015    -322.898     583.679
  C     -122.962    -320.636     584.307
  C     -123.418    -319.410     584.043
  O     -121.006    -314.231     586.383
  O     -122.690    -315.545     587.753
  H     -127.260    -317.390     582.087
  H     -122.898    -314.612     587.941
  H     -124.579    -322.189     581.864
  H     -122.285    -320.854     585.125
  H     -123.103    -318.568     584.653
  H     -125.064    -317.794     581.634
  H     -126.485    -318.271     584.082
  H     -124.820    -317.110     585.312
  H     -124.750    -315.027     583.078
  H     -122.508    -314.575     583.917
  H     -123.624    -314.369     585.249
  P     -126.010    -315.382     586.907
  C     -124.955    -313.534     588.387
  O     -125.158    -314.033     587.083
  O     -125.638    -316.545     587.762
  O     -127.482    -314.890     587.329
  H     -127.651    -315.185     588.246
  H     -124.374    -312.610     588.315
  H     -124.400    -314.249     588.997
  H     -125.917    -313.303     588.859
  H     -118.874    -317.781     586.714
  H     -118.812    -316.087     586.291
  H     -119.658    -317.215     585.259

 3  4  5  6  7  8  9  10  11  12  13  23  28  29  30  31  32 0
 6-311+G(2d,p)
 ****
 33  34 0
 6-311+G(2d,p)
 ****
 1  2  14  15  16  17  18  19  20  21  22  24  25  26  27 0
 3-21G
 ****
 35  36  37  38  39  40  41  42  43  44  45 0
 3-21G
 ****


