%nproc=1
%NoSave
%Mem=1900MB
#P OB98/GEN NMR

erre ene a

0 1
  C     -192.737    -348.505    -239.404
  O     -191.633    -349.039    -240.139
  P     -190.214    -349.036    -239.386
  C     -189.362    -346.756    -240.286
  O     -189.792    -347.504    -239.152
  C     -189.501    -345.249    -240.038
  O     -189.224    -344.504    -241.264
  C     -190.901    -344.829    -239.557
  O     -190.710    -343.741    -238.641
  C     -191.548    -344.350    -240.844
  O     -192.715    -343.569    -240.626
  C     -190.368    -343.635    -241.484
  N     -191.708    -340.069    -244.880
  C     -191.632    -340.054    -243.528
  N     -191.273    -341.044    -242.692
  C     -190.952    -342.150    -243.391
  C     -190.971    -342.324    -244.765
  C     -191.370    -341.211    -245.530
  N     -191.463    -341.225    -246.902
  N     -190.595    -343.615    -245.104
  C     -190.424    -344.222    -243.940
  N     -190.543    -343.359    -242.891
  O     -189.194    -349.555    -240.507
  O     -190.189    -349.883    -238.157
  H     -192.470    -342.720    -240.210
  H     -188.999    -350.500    -240.381
  H     -191.911    -339.109    -243.060
  H     -190.215    -345.272    -243.810
  H     -190.147    -342.673    -240.991
  H     -191.846    -345.221    -241.445
  H     -191.450    -345.633    -239.053
  H     -188.745    -344.954    -239.297
  H     -189.955    -347.035    -241.163
  H     -191.766    -340.381    -247.363
  H     -191.238    -342.060    -247.424
  H     -188.322    -347.027    -240.522
  P     -190.219    -344.059    -237.149
  C     -192.114    -342.766    -235.994
  O     -191.570    -344.042    -236.272
  O     -189.567    -342.651    -236.746
  O     -189.309    -345.231    -236.986
  H     -190.174    -341.914    -236.938
  H     -193.069    -342.896    -235.463
  H     -192.297    -342.221    -236.921
  H     -191.434    -342.194    -235.355
  H     -193.623    -348.559    -240.002
  H     -192.538    -347.484    -239.153
  H     -192.877    -349.072    -238.508

 3  4  5  6  7  8  9  10  11  12  22  25  29  30  31  32 0
 6-311+G(2d,p)
 ****
 33  36  37 0
 6-311+G(2d,p)
 ****
 1  2  13  14  15  16  17  18  19  20  21  23  24  26 0
 3-21G
 ****
 27  28  34  35  38  39  40  41  42  43  44  45  46  47  48 0
 3-21G
 ****


