%nproc=1
%NoSave
%Mem=1900MB
#P OB98/GEN NMR

erre ene a

0 1
  C       89.421    -393.439    -435.438
  O       88.210    -392.936    -434.912
  H       89.561    -394.462    -435.082
  H       90.262    -392.828    -435.097
  H       89.387    -393.446    -436.530
  P       87.807    -391.443    -435.335
  C       89.165    -389.233    -435.165
  O       88.808    -390.465    -434.552
  C       90.322    -388.595    -434.406
  O       91.403    -389.548    -434.274
  C       90.931    -387.386    -435.105
  O       90.157    -386.217    -434.930
  C       92.294    -387.316    -434.437
  O       92.227    -386.626    -433.180
  C       92.636    -388.793    -434.217
  N       97.290    -390.772    -434.900
  C       96.599    -390.459    -433.783
  N       95.355    -389.945    -433.687
  C       94.812    -389.788    -434.904
  C       95.393    -390.067    -436.131
  C       96.698    -390.586    -436.104
  N       97.412    -390.885    -437.241
  N       94.535    -389.736    -437.162
  C       93.455    -389.271    -436.569
  N       93.573    -389.287    -435.207
  O       86.404    -391.224    -434.592
  O       87.701    -391.209    -436.803
  H       91.981    -385.704    -433.390
  H       85.674    -391.355    -435.230
  H       97.119    -390.632    -432.845
  H       92.568    -388.911    -437.080
  H       93.081    -388.974    -433.230
  H       93.007    -386.786    -435.066
  H       91.071    -387.600    -436.172
  H       89.978    -388.332    -433.395
  H       88.305    -388.554    -435.145
  H       89.446    -389.422    -436.208
  H       98.367    -391.190    -437.145
  H       97.021    -390.644    -438.142
  P       90.510    -384.944    -435.842
  C       92.398    -383.148    -435.880
  O       91.836    -384.284    -435.234
  O       89.359    -383.888    -435.491
  O       90.576    -385.228    -437.303
  H       89.125    -383.374    -436.289
  H       93.273    -382.833    -435.351
  H       91.682    -382.353    -435.890
  H       92.661    -383.403    -436.885

 6  7  8  9  10  11  12  13  14  15  25  28  32  33  34  35 0
 6-311+G(2d,p)
 ****
 36  37  40 0
 6-311+G(2d,p)
 ****
 1  2  3  4  5  16  17  18  19  20  21  22  23  24 0
 3-21G
 ****
 26  27  29  30  31  38  39 41  42  43  44  45  46  47  48 0
 3-21G
 ****


