%nproc=1
%NoSave
%Mem=1900MB
#P OB98/GEN NMR

erre ene a

0 1
  C     -422.974      98.340    -440.374
  O     -423.321      99.152    -439.272
  H     -422.763      97.331    -440.009
  H     -422.075      98.729    -440.860
  H     -423.793      98.288    -441.094
  P     -423.840     100.645    -439.548
  C     -426.265     100.219    -438.782
  O     -425.409     100.543    -439.871
  C     -427.723     100.285    -439.235
  O     -428.001      99.207    -440.157
  C     -428.728     100.121    -438.100
  O     -428.826     101.298    -437.318
  C     -429.978      99.755    -438.877
  O     -430.625     100.922    -439.401
  C     -429.409      98.888    -440.022
  N     -429.603      97.458    -439.778
  C     -430.753      96.894    -440.317
  O     -431.575      97.527    -440.983
  N     -430.966      95.575    -440.021
  C     -430.232      94.829    -439.142
  O     -430.595      93.736    -438.716
  C     -428.997      95.458    -438.650
  C     -428.749      96.728    -438.975
  O     -423.038     101.437    -440.525
  O     -423.821     101.320    -438.093
  H     -423.033     101.889    -438.016
  H     -431.094     101.327    -438.641
  H     -431.819      95.167    -440.374
  H     -428.347      94.873    -438.010
  H     -427.857      97.224    -438.598
  H     -429.884      99.148    -440.975
  H     -430.699      99.229    -438.249
  H     -428.439      99.274    -437.472
  H     -427.879     101.234    -439.763
  H     -426.101     100.947    -437.979
  H     -426.018      99.220    -438.418
  P     -428.102     101.381    -435.894
  C     -426.686     103.521    -436.057
  O     -426.679     102.096    -436.088
  O     -428.060     100.099    -435.126
  O     -428.944     102.491    -435.099
  H     -429.188     102.130    -434.221
  H     -425.690     103.886    -436.196
  H     -427.060     103.855    -435.112
  H     -427.314     103.892    -436.840

 6  7  8  9  10  11  12  13  14  15  16  27  31  32  33  34  35 0
 6-311+G(2d,p)
 ****
 36  37 0
 6-311+G(2d,p)
 ****
 1  2  3  4  5  17  18  19  20  21  22  23  24  25 0
 3-21G
 ****
 26  28  29  30  38  39  40  41  42  43  44  45 0
 3-21G
 ****


