%nproc=1
%NoSave
%Mem=1900MB
#P OB98/GEN NMR

erre ene a

0 1
  C     -232.857    1117.824     -13.929
  O     -231.535    1117.900     -13.439
  H     -233.316    1118.812     -13.852
  H     -233.443    1117.119     -13.330
  H     -232.864    1117.509     -14.984
  P     -230.615    1116.593     -13.599
  C     -230.256    1116.993     -16.141
  O     -230.749    1116.123     -15.136
  C     -229.561    1116.199     -17.257
  O     -230.581    1115.447     -17.989
  C     -228.808    1117.066     -18.264
  O     -227.610    1116.380     -18.631
  C     -229.736    1117.138     -19.457
  O     -229.057    1117.392     -20.682
  C     -230.434    1115.778     -19.389
  N     -231.746    1115.807     -20.069
  C     -231.712    1115.975     -21.453
  O     -230.651    1116.098     -22.047
  N     -232.913    1116.058     -22.132
  C     -234.028    1116.063     -21.470
  N     -235.166    1116.177     -22.191
  C     -234.097    1115.954     -19.993
  C     -232.922    1115.825     -19.364
  O     -231.416    1115.470     -12.802
  O     -229.211    1116.744     -13.119
  H     -229.726    1117.455     -21.394
  H     -230.814    1114.821     -12.396
  H     -235.045    1115.986     -19.478
  H     -232.872    1115.745     -18.277
  H     -229.823    1115.001     -19.841
  H     -230.471    1117.960     -19.302
  H     -228.557    1118.057     -17.866
  H     -228.905    1115.461     -16.785
  H     -235.086    1116.266     -23.187
  H     -229.530    1117.680     -15.701
  H     -236.100    1116.234     -21.774
  H     -231.085    1117.577     -16.559
  P     -226.324    1117.294     -18.943
  C     -225.468    1117.477     -16.496
  O     -225.981    1118.148     -17.633
  O     -226.874    1118.363     -19.983
  O     -225.175    1116.507     -19.504
  H     -226.513    1118.185     -20.875
  H     -225.293    1118.185     -15.713
  H     -224.548    1116.994     -16.752
  H     -226.175    1116.746     -16.164

 6  7  8  9  10  11  12  13  14  15  16  26  30  31  32  33  35 0
 6-311+G(2d,p)
 ****
 37  38 0
 6-311+G(2d,p)
 ****
 1  2  3  4  5  17  18  19  20  21  22  23  24  25 0
 3-21G
 ****
 27  28  29  34  36  39  40  41  42  43  44  45  46 0
 3-21G
 ****


