%nproc=1
%NoSave
%Mem=1900MB
#P OB98/GEN NMR

erre ene a

0 1
  C      200.493     563.627    -509.343
  O      200.729     564.163    -510.626
  H      200.135     562.599    -509.450
  H      199.733     564.209    -508.815
  H      201.419     563.611    -508.759
  P      201.201     565.690    -510.751
  C      198.768     566.265    -511.380
  O      200.143     566.427    -511.709
  C      197.882     566.791    -512.530
  O      198.163     568.206    -512.692
  C      198.175     566.087    -513.869
  O      197.005     565.550    -514.485
  C      198.981     567.128    -514.651
  O      198.892     567.004    -516.052
  C      198.457     568.455    -514.079
  N      199.403     569.564    -514.219
  C      199.785     569.919    -515.511
  O      199.376     569.388    -516.551
  N      200.684     570.948    -515.598
  C      201.222     571.639    -514.557
  O      202.022     572.564    -514.696
  C      200.797     571.203    -513.218
  C      199.923     570.206    -513.104
  O      202.631     565.898    -511.119
  O      200.872     566.311    -509.305
  H      199.306     567.793    -516.450
  H      201.698     566.386    -508.789
  H      200.966     571.226    -516.532
  H      201.223     571.722    -512.363
  H      199.586     569.857    -512.140
  H      197.531     568.747    -514.581
  H      200.049     567.012    -514.378
  H      198.803     565.190    -513.708
  H      196.832     566.694    -512.236
  H      198.566     566.831    -510.462
  H      198.549     565.209    -511.203
  P      196.513     564.042    -514.350
  C      196.256     563.266    -516.848
  O      195.624     563.672    -515.625
  O      195.963     563.658    -513.012
  O      197.874     563.186    -514.582
  H      197.796     562.374    -514.025
  H      195.508     563.060    -517.585
  H      196.837     562.385    -516.674
  H      196.894     564.051    -517.197

 6  7  8  9  10  11  12  13  14  15  16  26  31  32  33  34  35 0
 6-311+G(2d,p)
 ****
 36  37 0
 6-311+G(2d,p)
 ****
 1  2  3  4  5  17  18  19  20  21  22  23  24  25 0
 3-21G
 ****
 27  28  29  30  38  39  40  41  42  43  44  45 0
 3-21G
 ****


