%nproc=1
%NoSave
%Mem=1900MB
#P OB98/GEN NMR

erre ene a

0 1
  C      531.344    -254.768    1113.331
  O      532.038    -253.758    1114.066
  P      533.193    -252.953    1113.278
  C      531.401    -251.495    1112.072
  O      532.528    -252.366    1111.949
  C      531.710    -250.104    1111.551
  O      532.174    -250.155    1110.184
  C      530.528    -249.145    1111.541
  O      530.285    -248.597    1112.826
  C      531.027    -248.073    1110.586
  O      531.866    -247.135    1111.294
  C      531.836    -248.882    1109.574
  N      531.595    -247.879    1104.603
  C      532.486    -247.408    1105.570
  N      533.458    -246.568    1105.129
  N      532.417    -247.729    1106.830
  C      531.403    -248.591    1107.113
  C      530.466    -249.107    1106.254
  C      530.527    -248.723    1104.865
  O      529.753    -249.076    1103.970
  N      529.591    -249.958    1106.901
  C      530.034    -249.957    1108.140
  N      531.122    -249.133    1108.330
  O      534.130    -254.130    1112.727
  O      533.939    -251.985    1114.116
  H      532.684    -247.616    1111.519
  H      535.034    -253.806    1112.622
  H      531.684    -247.586    1103.643
  H      529.608    -250.551    1108.955
  H      532.786    -248.397    1109.326
  H      530.198    -247.480    1110.152
  H      533.630    -246.334    1104.157
  H      529.632    -249.632    1111.135
  H      534.146    -246.266    1105.801
  H      532.539    -249.706    1112.172
  H      531.109    -251.430    1113.131
  H      530.557    -251.943    1111.528
  P      529.115    -247.513    1112.964
  C      527.157    -249.174    1112.467
  O      527.912    -248.060    1112.036
  O      529.684    -246.264    1112.147
  O      528.739    -247.169    1114.364
  H      529.322    -245.422    1112.503
  H      526.942    -249.102    1113.536
  H      527.734    -250.103    1112.288
  H      526.229    -249.227    1111.912
  H      530.609    -255.225    1113.960
  H      532.040    -255.510    1112.999
  H      530.863    -254.326    1112.484

 3  4  5  6  7  8  9  10  11  12  23  26  30  31  33  0
 6-311+G(2d,p)
 ****
 35  36  37  38 0
 6-311+G(2d,p)
 ****
 1  2  13  14  15  16  17  18  19  20  21  22  24  25  27  28  29 0
 3-21G
 ****
 32  34  39  40  41  42  43  44  45  46  47  48  49 0
 3-21G
 ****


