%nproc=1
%NoSave
%Mem=1900MB
#P OB98/GEN NMR

erre ene a

0 1
  C      600.674      61.727     -61.162
  O      601.323      62.106     -62.359
  H      601.349      61.843     -60.312
  H      599.805      62.378     -61.010
  H      600.328      60.689     -61.228
  P      602.623      61.262     -62.776
  C      604.235      63.284     -62.514
  O      603.861      61.991     -62.058
  C      605.214      63.910     -61.525
  O      604.559      64.150     -60.257
  C      606.427      63.049     -61.208
  O      607.430      63.146     -62.206
  C      606.887      63.679     -59.902
  O      607.578      64.910     -60.179
  C      605.550      63.959     -59.204
  N      606.466      61.514     -54.807
  C      607.095      62.538     -55.418
  N      606.792      63.131     -56.592
  C      605.709      62.557     -57.143
  C      604.970      61.502     -56.645
  C      605.379      60.970     -55.405
  N      604.744      59.915     -54.787
  N      603.947      61.167     -57.516
  C      604.057      62.030     -58.506
  N      605.112      62.885     -58.331
  O      602.830      61.630     -64.322
  O      602.543      59.787     -62.543
  H      608.412      64.671     -60.622
  H      603.378      60.946     -64.754
  H      607.964      62.932     -54.892
  H      603.399      62.074     -59.361
  H      605.570      64.877     -58.609
  H      607.574      63.042     -59.341
  H      606.145      62.002     -61.023
  H      605.521      64.889     -61.928
  H      603.343      63.909     -62.587
  H      605.227      59.494     -54.009
  H      604.032      59.417     -55.303
  H      604.697      63.199     -63.510
  P      608.609      62.053     -62.180
  C      610.533      63.739     -61.698
  O      609.744      62.654     -61.217
  O      609.250      62.174     -63.637
  O      608.160      60.661     -61.865
  H      609.671      61.334     -63.903
  H      611.240      64.026     -60.948
  H      609.897      64.569     -61.925
  H      611.054      63.436     -62.582

 6  7  8  9  10  11  12  13  14  15  25  28  32  33  34  35 0
 6-311+G(2d,p)
 ****
 36  39  40 0
 6-311+G(2d,p)
 ****
 1  2  3  4  5  16  17  18  19  20  21  22  23  24 0
 3-21G
 ****
 26  27  29  30  31  37  38  41  42  43  44  45  46  47 0
 3-21G
 ****
 48 0
 3-21G
 ****


