%nproc=1
%NoSave
%Mem=1900MB
#P OB98/GEN NMR

erre ene a

0 1
  C     -241.770     -22.996    -133.278
  O     -241.022     -21.823    -133.023
  H     -242.649     -23.024    -132.631
  H     -242.098     -22.982    -134.320
  H     -241.156     -23.886    -133.114
  P     -240.296     -21.726    -131.596
  C     -238.037     -20.446    -131.723
  O     -239.452     -20.359    -131.627
  C     -237.585     -20.225    -133.167
  O     -238.285     -19.071    -133.705
  C     -236.082     -19.962    -133.304
  O     -235.605     -20.611    -134.484
  C     -236.001     -18.454    -133.473
  O     -234.820     -18.052    -134.158
  C     -237.295     -18.164    -134.227
  N     -238.440     -13.831    -136.671
  C     -238.142     -15.068    -137.120
  N     -237.854     -16.173    -136.400
  C     -237.945     -15.916    -135.083
  C     -238.237     -14.706    -134.476
  C     -238.483     -13.622    -135.333
  N     -238.752     -12.347    -134.885
  N     -238.197     -14.834    -133.100
  C     -237.889     -16.097    -132.884
  N     -237.722     -16.788    -134.052
  O     -239.172     -22.865    -131.707
  O     -241.172     -21.920    -130.405
  H     -234.851     -18.421    -135.065
  H     -239.576     -23.737    -131.542
  H     -238.127     -15.187    -138.200
  H     -237.767     -16.555    -131.912
  H     -237.200     -18.339    -135.308
  H     -236.006     -17.972    -132.489
  H     -235.511     -20.310    -132.440
  H     -237.894     -21.089    -133.767
  H     -237.719     -21.438    -131.388
  H     -238.861     -11.618    -135.570
  H     -238.728     -12.159    -133.893
  H     -237.585     -19.687    -131.074
  P     -235.409     -22.202    -134.404
  C     -235.489     -22.941    -136.887
  O     -234.679     -22.696    -135.746
  O     -236.900     -22.766    -134.551
  O     -234.774     -22.663    -133.131
  H     -237.082     -23.415    -133.845
  H     -234.872     -23.262    -137.700
  H     -236.001     -22.042    -137.161
  H     -236.204     -23.704    -136.660

 6  7  8  9  10  11  12  13  14  15  25  28  32  33  34  35 0
 6-311+G(2d,p)
 ****
 36  39  40 0
 6-311+G(2d,p)
 ****
 1  2  3  4  5  16  17  18  19  20  21  22  23  24 0
 3-21G
 ****
 26  27  29  30  31  37  38  41  42  43  44  45  46  47 0
 3-21G
 ****
 48 0
 3-21G
 ****


