%nproc=1
%NoSave
%Mem=1900MB
#P OB98/GEN NMR

erre ene a

0 1
  C     -218.795      57.300    -564.895
  O     -218.397      55.976    -564.576
  P     -217.705      55.115    -565.739
  C     -219.490      53.241    -565.461
  O     -218.107      53.593    -565.448
  C     -219.660      51.742    -565.683
  O     -219.163      51.383    -566.986
  C     -218.900      50.870    -564.700
  O     -219.575      50.815    -563.458
  C     -218.849      49.543    -565.443
  O     -220.034      48.767    -565.185
  C     -218.789      49.991    -566.923
  N     -217.483      49.757    -567.521
  C     -217.024      48.427    -567.484
  O     -217.707      47.554    -566.946
  N     -215.790      48.150    -568.025
  C     -215.081      49.098    -568.538
  N     -213.865      48.760    -569.058
  C     -215.516      50.511    -568.581
  C     -216.719      50.762    -568.052
  O     -216.152      55.174    -565.366
  O     -217.974      55.608    -567.126
  H     -219.883      47.905    -565.628
  H     -215.595      55.059    -566.151
  H     -214.887      51.262    -569.025
  H     -217.119      51.772    -568.038
  H     -219.538      49.438    -567.515
  H     -217.994      48.936    -565.133
  H     -217.876      51.257    -564.559
  H     -220.740      51.509    -565.656
  H     -213.589      47.785    -569.012
  H     -219.996      53.782    -566.260
  H     -213.253      49.431    -569.505
  H     -219.940      53.545    -564.499
  P     -218.879      51.524    -562.198
  C     -219.517      49.577    -560.663
  O     -219.663      50.954    -560.927
  O     -219.448      53.023    -562.293
  O     -217.394      51.492    -562.135
  H     -219.014      53.591    -561.632
  H     -219.968      49.345    -559.690
  H     -218.463      49.295    -560.633
  H     -220.033      48.994    -561.435
  H     -219.239      57.756    -564.035
  H     -219.507      57.276    -565.693
  H     -217.939      57.867    -565.198

 3  4  5  6  7  8  9  10  11  12  13  21  23  27  28  29  30  32 0
 6-311+G(2d,p)
 ****
 34  35 0
 6-311+G(2d,p)
 ****
 1  2  14  15  16  17  18  19  20  22  24  25  26 0
 3-21G
 ****
 31  33  36  37  38  39  40  41  42  43  44  45  46 0
 3-21G
 ****


