%nproc=1
%NoSave
%Mem=1900MB
#P OB98/GEN NMR

erre ene a

0 1
  C     -681.848    -205.044    -226.111
  O     -683.245    -205.357    -226.221
  P     -684.195    -204.250    -226.896
  C     -684.422    -205.659    -229.092
  O     -684.027    -204.440    -228.484
  C     -683.931    -205.703    -230.544
  O     -682.483    -205.645    -230.594
  C     -684.312    -206.972    -231.289
  O     -685.686    -206.973    -231.656
  C     -683.343    -206.912    -232.470
  O     -683.840    -206.017    -233.471
  C     -682.076    -206.317    -231.804
  N     -681.050    -207.307    -231.549
  C     -679.878    -207.193    -232.310
  O     -679.727    -206.322    -233.169
  N     -678.915    -208.119    -232.061
  C     -678.994    -209.152    -231.171
  O     -678.087    -209.953    -230.982
  C     -680.266    -209.258    -230.436
  C     -681.214    -208.339    -230.650
  O     -683.392    -202.907    -226.568
  O     -685.598    -204.298    -226.379
  H     -682.432    -203.026    -226.587
  H     -684.032    -205.172    -233.014
  H     -678.058    -208.043    -232.591
  H     -680.384    -210.081    -229.735
  H     -682.160    -208.413    -230.122
  H     -681.645    -205.543    -232.459
  H     -683.192    -207.885    -232.935
  H     -684.091    -207.856    -230.674
  H     -684.331    -204.821    -231.060
  H     -685.507    -205.747    -229.084
  H     -684.022    -206.501    -228.514
  P     -686.718    -207.559    -230.566
  C     -687.821    -205.264    -229.954
  O     -687.036    -206.372    -229.551
  O     -685.762    -208.531    -229.727
  O     -687.905    -208.228    -231.169
  H     -684.902    -208.147    -229.518
  H     -688.215    -204.757    -229.078
  H     -688.668    -205.595    -230.581
  H     -687.208    -204.557    -230.522
  H     -681.335    -205.860    -225.647
  H     -681.726    -204.162    -225.517
  H     -681.442    -204.876    -227.087

 3  4  5  6  7  8  9  10  11  12  13  24  28  29  30  31  32 0
 6-311+G(2d,p)
 ****
 33  34 0
 6-311+G(2d,p)
 ****
 1  2  14  15  16  17  18  19  20  21  22  23  25  26  27 0
 3-21G
 ****
 35  36  37  38  39  40  41  42  43  44  45 0
 3-21G
 ****


