%nproc=1
%NoSave
%Mem=1900MB
#P OB98/GEN NMR

erre ene a

0 1
  C      414.658    -175.659     -39.728
  O      414.073    -175.266     -38.483
  P      413.254    -176.365     -37.648
  C      411.129    -177.800     -37.941
  O      411.921    -176.737     -38.459
  C      409.650    -177.618     -38.330
  O      409.119    -176.466     -37.622
  C      409.400    -177.344     -39.818
  O      409.212    -178.452     -40.690
  C      408.064    -176.603     -39.765
  O      406.981    -177.549     -39.691
  C      408.143    -175.813     -38.460
  N      406.478    -171.227     -40.025
  C      405.865    -172.430     -39.940
  N      406.383    -173.600     -39.513
  C      407.663    -173.450     -39.135
  C      408.418    -172.288     -39.166
  C      407.774    -171.132     -39.639
  N      408.402    -169.907     -39.742
  N      409.699    -172.523     -38.711
  C      409.723    -173.814     -38.428
  N      408.512    -174.416     -38.655
  O      413.060    -176.068     -36.198
  O      414.146    -177.685     -37.841
  H      407.114    -178.058     -38.870
  H      414.141    -178.200     -37.008
  H      404.826    -172.456     -40.257
  H      410.585    -174.351     -38.060
  H      407.189    -175.808     -37.913
  H      407.889    -175.995     -40.657
  H      410.178    -176.679     -40.229
  H      409.081    -178.505     -38.011
  H      411.221    -177.832     -36.853
  H      407.875    -169.141     -40.134
  H      409.379    -169.835     -39.514
  H      411.547    -178.742     -38.319
  P      410.401    -178.990     -41.618
  C      411.421    -178.154     -43.885
  O      410.398    -178.044     -42.916
  O      410.358    -180.453     -41.924
  O      411.711    -178.517     -40.830
  H      411.843    -177.552     -40.820
  H      411.128    -177.587     -44.772
  H      411.578    -179.201     -44.167
  H      412.351    -177.729     -43.486
  H      415.167    -174.824     -40.162
  H      413.890    -175.994     -40.393
  H      415.355    -176.453     -39.560

 3  4  5  6  7  8  9  10  11  12  22  25  29  30  31  32 0
 6-311+G(2d,p)
 ****
 33  36  37 0
 6-311+G(2d,p)
 ****
 1  2  13  14  15  16  17  18  19  20  21  23  24  26 0
 3-21G
 ****
 27  28  34  35  38  39  40  41  42  43  44  45  46  47  48 0
 3-21G
 ****


