%nproc=1
%NoSave
%Mem=1900MB
#P OB98/GEN NMR

erre ene a

0 1
  C     -189.747    -170.222    -715.717
  O     -190.265    -168.958    -716.094
  H     -190.550    -170.840    -715.308
  H     -189.343    -170.715    -716.605
  H     -188.946    -170.111    -714.983
  P     -190.632    -167.937    -714.912
  C     -189.507    -167.718    -712.581
  O     -189.323    -167.824    -713.988
  C     -188.286    -167.073    -711.930
  O     -187.139    -167.951    -712.119
  C     -187.917    -165.694    -712.503
  O     -187.485    -164.853    -711.426
  C     -186.726    -165.996    -713.402
  O     -185.875    -164.872    -713.588
  C     -186.071    -167.148    -712.649
  N     -181.569    -167.137    -715.020
  C     -182.053    -166.391    -714.003
  N     -183.254    -166.496    -713.388
  C     -183.949    -167.537    -713.883
  C     -183.587    -168.388    -714.913
  C     -182.330    -168.144    -715.512
  N     -181.858    -168.854    -716.588
  N     -184.597    -169.294    -715.169
  C     -185.563    -168.983    -714.328
  N     -185.222    -167.922    -713.534
  O     -191.653    -168.796    -714.018
  O     -191.226    -166.639    -715.344
  H     -185.349    -165.004    -714.403
  H     -192.558    -168.680    -714.358
  H     -181.401    -165.602    -713.641
  H     -186.527    -169.459    -714.278
  H     -185.450    -166.805    -711.811
  H     -187.087    -166.326    -714.385
  H     -188.735    -165.206    -713.048
  H     -188.463    -167.004    -710.848
  H     -189.645    -168.722    -712.163
  H     -181.000    -168.537    -717.015
  H     -182.462    -169.531    -717.034
  H     -190.407    -167.129    -712.379
  P     -188.545    -163.805    -710.836
  C     -190.694    -164.365    -709.473
  O     -189.278    -164.476    -709.575
  O     -189.689    -163.771    -711.956
  O     -187.977    -162.446    -710.592
  H     -190.091    -162.885    -712.005
  H     -191.027    -164.860    -708.585
  H     -191.150    -164.820    -710.327
  H     -190.969    -163.332    -709.430

 6  7  8  9  10  11  12  13  14  15  25  28  32  33  34  35 0
 6-311+G(2d,p)
 ****
 36  39  40 0
 6-311+G(2d,p)
 ****
 1  2  3  4  5  16  17  18  19  20  21  22  23  24 0
 3-21G
 ****
 26  27  29  30  31  37  38  41  42  43  44  45  46  47 0
 3-21G
 ****
 48 0
 3-21G
 ****


