%nproc=1
%NoSave
%Mem=1900MB
#P OB98/GEN NMR

erre ene a

0 1
  C       88.153     395.469       8.662
  O       88.032     395.243       7.271
  H       88.326     396.535       8.830
  H       89.000     394.906       9.064
  H       87.232     395.174       9.175
  P       87.796     393.723       6.813
  C       89.780     393.833       5.146
  O       89.216     393.192       6.281
  C       91.080     393.144       4.736
  O       92.181     393.608       5.547
  C       91.054     391.624       4.865
  O       90.442     391.023       3.738
  C       92.541     391.311       4.967
  O       93.169     391.297       3.668
  C       93.060     392.483       5.812
  N       95.205     389.639       9.390
  C       95.448     389.696       8.030
  N       96.364     388.827       7.548
  N       94.840     390.522       7.219
  C       93.929     391.308       7.840
  C       93.612     391.356       9.178
  C       94.313     390.459      10.070
  O       94.192     390.405      11.291
  N       92.649     392.299       9.426
  C       92.355     392.791       8.237
  N       93.097     392.209       7.240
  O       86.934     393.867       5.469
  O       87.116     392.851       7.810
  H       94.134     391.308       3.780
  H       86.349     393.092       5.382
  H       95.718     388.993       9.965
  H       91.624     393.563       8.046
  H       94.071     392.784       5.521
  H       92.716     390.328       5.406
  H       96.598     387.977       8.042
  H       90.554     391.323       5.794
  H       96.528     388.849       6.551
  H       91.294     393.434       3.698
  H       89.990     394.877       5.392
  H       89.062     393.799       4.319
  P       90.216     389.433       3.769
  C       91.913     389.246       1.807
  O       91.512     388.778       3.089
  O       89.070     389.200       2.677
  O       89.840     388.886       5.104
  H       88.664     388.324       2.801
  H       92.787     388.715       1.491
  H       92.131     390.292       1.861
  H       91.123     389.083       1.104

 6  7  8  9  10  11  12  13  14  15  26  29  33  34 0
 6-311+G(2d,p)
 ****
 36  38  39  40  41 0
 6-311+G(2d,p)
 ****
 1  2  3  4  5  16  17  18  19  20  21  22  23  24  25 0
 3-21G
 ****
 27  28  30  31  32  35  37  42  43  44  45  46  47 0
 3-21G
 ****
 48  49 0
 3-21G
 ****


