%nproc=1
%NoSave
%Mem=1900MB
#P OB98/GEN NMR

erre ene a

0 1
  C      100.914      28.718    -108.005
  O      100.055      28.168    -108.983
  H      101.575      27.930    -107.637
  H      100.328      29.102    -107.165
  H      101.526      29.518    -108.429
  P       99.105      29.153    -109.819
  C       97.511      30.036    -107.988
  O       98.636      30.308    -108.812
  C       96.504      31.189    -108.047
  O       97.119      32.374    -107.449
  C       96.069      31.580    -109.475
  O       94.729      32.083    -109.381
  C       97.059      32.688    -109.783
  O       96.716      33.416    -110.936
  C       97.036      33.425    -108.435
  N       98.102      34.400    -108.237
  C       98.071      35.558    -109.011
  O       97.208      35.819    -109.848
  N       99.097      36.441    -108.799
  C      100.114      36.290    -107.901
  O      100.990      37.133    -107.733
  C      100.096      35.046    -107.119
  C       99.106      34.173    -107.318
  O       98.006      28.496    -110.585
  O      100.121      29.922    -110.790
  H      100.071      29.538    -111.686
  H       97.266      34.228    -110.977
  H       99.087      37.286    -109.344
  H      100.895      34.890    -106.407
  H       99.058      33.249    -106.748
  H       96.067      33.918    -108.297
  H       98.044      32.264    -109.979
  H       96.094      30.742    -110.175
  H       95.637      30.935    -107.426
  H       97.864      29.905    -106.960
  H       97.038      29.107    -108.323
  P       93.483      31.444    -110.167
  C       93.718      32.579    -112.484
  O       93.858      31.380    -111.728
  O       92.181      32.118    -109.888
  O       93.446      29.908    -109.716
  H       92.535      29.566    -109.797
  H       93.999      32.395    -113.500
  H       94.350      33.337    -112.071
  H       92.700      32.906    -112.449

 6  7  8  9  10  11  12  13  14  15  16  27  31  32  33  34  35 0
 6-311+G(2d,p)
 ****
 36  37 0
 6-311+G(2d,p)
 ****
 1  2  3  4  5  17  18  19  20  21  22  23  24  25 0
 3-21G
 ****
 26  28  29  30  38  39  40  41  42  43  44  45 0
 3-21G
 ****


