%nproc=1
%NoSave
%Mem=1900MB
#P OB98/GEN NMR

erre ene a

0 1
  C      147.131     346.544      73.740
  O      147.259     347.923      73.437
  P      146.408     348.486      72.199
  C      147.609     348.782      69.910
  O      147.092     347.880      70.884
  C      149.106     348.983      70.115
  O      149.752     347.718      70.340
  C      149.819     349.602      68.922
  O      149.583     350.992      68.865
  C      151.269     349.233      69.211
  O      151.889     350.204      70.066
  C      151.131     347.870      69.932
  N      151.570     346.755      69.111
  C      152.945     346.697      68.846
  O      153.697     347.571      69.285
  N      153.421     345.678      68.059
  C      152.598     344.798      67.578
  N      153.128     343.806      66.812
  C      151.142     344.835      67.818
  C      150.698     345.834      68.578
  O      146.813     350.032      72.153
  O      144.931     348.287      72.312
  H      151.756     351.069      69.620
  H      146.103     350.566      71.747
  H      150.501     344.077      67.392
  H      149.644     345.937      68.803
  H      151.725     347.866      70.855
  H      151.866     349.184      68.296
  H      149.493     349.123      67.991
  H      149.251     349.605      71.010
  H      154.129     343.811      66.660
  H      147.105     349.749      70.011
  H      152.575     343.061      66.410
  H      147.404     348.382      68.913
  P      149.806     351.732      67.463
  C      151.925     353.172      67.555
  O      151.395     351.882      67.326
  O      149.353     353.234      67.794
  O      149.087     351.178      66.279
  H      149.353     353.766      66.980
  H      153.017     353.102      67.588
  H      151.571     353.570      68.510
  H      151.638     353.843      66.742
  H      147.748     346.305      74.581
  H      147.438     345.963      72.896
  H      146.110     346.323      73.972

 3  4  5  6  7  8  9  10  11  12  13  21  23  27  28  29  30  32 0
 6-311+G(2d,p)
 ****
 34  35 0
 6-311+G(2d,p)
 ****
 1  2  14  15  16  17  18  19  20  22  24  25  26 0
 3-21G
 ****
 31  33  36  37  38  39  40  41  42  43  44  45  46 0
 3-21G
 ****


