%nproc=1
%NoSave
%Mem=1900MB
#P OB98/GEN NMR

erre ene a

0 1
  C       -0.475    -162.457    -349.191
  O       -1.440    -161.462    -349.471
  H       -0.060    -162.269    -348.199
  H        0.337    -162.419    -349.924
  H       -0.938    -163.448    -349.196
  P       -2.162    -161.468    -350.903
  C       -4.219    -162.813    -350.102
  O       -3.742    -161.578    -350.627
  C       -5.437    -162.571    -349.200
  O       -4.972    -161.897    -348.004
  C       -6.499    -161.687    -349.875
  O       -7.804    -162.270    -349.857
  C       -6.310    -160.338    -349.193
  O       -7.464    -159.523    -349.180
  C       -5.775    -160.715    -347.807
  N       -4.992    -159.661    -347.167
  C       -5.691    -158.599    -346.593
  O       -6.915    -158.491    -346.577
  N       -4.918    -157.627    -346.015
  C       -3.551    -157.605    -345.959
  O       -2.917    -156.707    -345.422
  C       -2.871    -158.736    -346.607
  C       -3.608    -159.697    -347.172
  O       -1.633    -162.455    -351.888
  O       -1.994    -159.965    -351.429
  H       -7.280    -158.767    -348.580
  H       -1.311    -159.939    -352.126
  H       -5.411    -156.861    -345.579
  H       -1.789    -158.744    -346.594
  H       -3.138    -160.550    -347.656
  H       -6.600    -160.970    -347.136
  H       -5.532    -159.780    -349.734
  H       -6.289    -161.576    -350.944
  H       -5.849    -163.540    -348.899
  H       -3.404    -163.270    -349.528
  H       -4.493    -163.482    -350.925
  P       -8.360    -163.305    -350.936
  C       -8.265    -165.887    -350.452
  O       -8.851    -164.622    -350.177
  O       -7.512    -163.503    -352.148
  O       -9.748    -162.634    -351.422
  H       -9.861    -162.887    -352.363
  H       -8.730    -166.635    -349.844
  H       -7.218    -165.850    -350.234
  H       -8.406    -166.128    -351.485

 6  7  8  9  10  11  12  13  14  15  16  26  31  32  33  34  35 0
 6-311+G(2d,p)
 ****
 36  37 0
 6-311+G(2d,p)
 ****
 1  2  3  4  5  17  18  19  20  21  22  23  24  25 0
 3-21G
 ****
 27  28  29  30  38  39  40  41  42  43  44  45 0
 3-21G
 ****


