%nproc=1
%NoSave
%Mem=1900MB
#P OB98/GEN NMR

erre ene a

0 1
  C     -112.568    -462.820    -502.663
  O     -112.808    -464.223    -502.660
  P     -112.127    -465.093    -503.830
  C     -111.973    -467.596    -503.144
  O     -112.753    -466.568    -503.742
  C     -112.693    -468.944    -503.215
  O     -113.882    -468.884    -502.375
  C     -113.157    -469.360    -504.624
  O     -113.037    -470.776    -504.704
  C     -114.606    -468.918    -504.631
  O     -115.393    -469.509    -505.659
  C     -114.994    -469.294    -503.201
  N     -119.811    -470.007    -501.592
  C     -118.816    -470.876    -501.890
  N     -117.560    -470.614    -502.301
  C     -117.371    -469.282    -502.398
  C     -118.279    -468.282    -502.152
  C     -119.566    -468.682    -501.729
  N     -120.580    -467.789    -501.441
  N     -117.719    -467.036    -502.372
  C     -116.486    -467.292    -502.764
  N     -116.223    -468.624    -502.769
  O     -110.623    -465.304    -503.303
  O     -112.161    -464.467    -505.190
  H     -116.339    -469.374    -505.469
  H     -109.982    -465.247    -504.027
  H     -119.059    -471.934    -501.780
  H     -115.761    -466.542    -503.056
  H     -115.137    -470.362    -503.076
  H     -114.662    -467.840    -504.778
  H     -112.550    -468.907    -505.425
  H     -112.030    -469.710    -502.787
  H     -111.792    -467.352    -502.095
  H     -121.501    -468.178    -501.343
  H     -120.444    -466.831    -501.734
  H     -110.997    -467.648    -503.649
  P     -112.749    -471.455    -506.129
  C     -111.005    -472.879    -504.874
  O     -112.118    -472.895    -505.760
  O     -111.444    -470.657    -506.601
  O     -113.876    -471.444    -507.106
  H     -110.759    -470.632    -505.910
  H     -110.747    -473.920    -504.624
  H     -111.252    -472.345    -503.961
  H     -110.140    -472.406    -505.369
  H     -113.077    -462.369    -501.837
  H     -112.930    -462.398    -503.577
  H     -111.517    -462.638    -502.577

 3  4  5  6  7  8  9  10  11  12  22  25  29  30  31  32 0
 6-311+G(2d,p)
 ****
 33  36  37 0
 6-311+G(2d,p)
 ****
 1  2  13  14  15  16  17  18  19  20  21  23  24  26 0
 3-21G
 ****
 27  28  34  35  38  39  40  41  42  43  44  45  46  47  48 0
 3-21G
 ****


