%nproc=1
%NoSave
%Mem=1900MB
#P OB98/GEN NMR

erre ene a

0 1
  C       15.043       5.647      18.354
  O       13.972       6.196      17.610
  H       14.893       5.883      19.410
  H       15.988       6.087      18.025
  H       15.074       4.560      18.234
  P       13.904       5.811      16.053
  C       12.938       3.734      14.769
  O       13.323       4.318      16.001
  C       12.083       2.488      15.007
  O       12.869       1.519      15.746
  C       10.807       2.762      15.806
  O        9.773       1.907      15.314
  C       11.180       2.337      17.217
  O       10.036       2.013      18.000
  C       12.133       1.164      16.934
  N       13.025       0.888      18.058
  C       12.612      -0.098      18.959
  O       11.538      -0.678      18.796
  N       13.401      -0.376      20.046
  C       14.477       0.315      20.253
  N       15.202       0.009      21.362
  C       14.928       1.395      19.354
  C       14.168       1.619      18.283
  O       15.453       5.629      15.692
  O       13.186       6.805      15.203
  H        9.613       1.212      17.620
  H       15.948       5.123      16.358
  H       15.827       1.951      19.574
  H       14.428       2.387      17.565
  H       11.564       0.252      16.713
  H       11.717       3.147      17.724
  H       10.486       3.803      15.747
  H       11.850       2.035      14.037
  H       14.845      -0.723      21.963
  H       13.822       3.461      14.185
  H       16.024       0.517      21.652
  H       12.373       4.481      14.202
  P        9.343       1.996      13.776
  C       10.651       1.723      11.561
  O       10.425       1.229      12.877
  O        8.955       3.350      13.288
  O        8.080       1.001      13.707
  H        7.406       1.416      13.135
  H       11.392       1.122      11.077
  H       10.992       2.736      11.614
  H        9.739       1.683      11.003

 6  7  8  9  10  11  12  13  14  15  16  26  30  31  32  33  35 0
 6-311+G(2d,p)
 ****
 37  38 0
 6-311+G(2d,p)
 ****
 1  2  3  4  5  17  18  19  20  21  22  23  24  25 0
 3-21G
 ****
 27  28  29  34  36  39  40  41  42  43  44  45  46 0
 3-21G
 ****


