%nproc=1
%NoSave
%Mem=1900MB
#P OB98/GEN NMR

erre ene a

0 1
  C      -42.498     -69.218    -155.200
  O      -42.149     -70.516    -154.750
  P      -40.678     -71.062    -155.081
  C      -41.616     -72.630    -156.928
  O      -40.682     -71.613    -156.591
  C      -41.121     -73.449    -158.122
  O      -41.100     -72.610    -159.309
  C      -39.708     -74.011    -157.940
  O      -39.616     -75.283    -158.600
  C      -38.836     -73.037    -158.704
  O      -37.607     -73.639    -159.108
  C      -39.767     -72.668    -159.860
  N      -36.332     -70.268    -162.690
  C      -36.511     -71.623    -162.485
  N      -35.592     -72.440    -163.047
  N      -37.502     -72.130    -161.800
  C      -38.337     -71.190    -161.295
  C      -38.275     -69.823    -161.439
  C      -37.165     -69.275    -162.189
  O      -36.934     -68.084    -162.383
  N      -39.323     -69.201    -160.811
  C      -39.998     -70.185    -160.246
  N      -39.419     -71.406    -160.481
  O      -40.583     -72.393    -154.194
  O      -39.573     -70.116    -154.749
  H      -37.823     -74.289    -159.803
  H      -40.010     -72.232    -153.419
  H      -35.545     -69.925    -163.216
  H      -40.888     -70.067    -159.641
  H      -39.767     -73.439    -160.639
  H      -38.604     -72.168    -158.081
  H      -34.769     -72.109    -163.527
  H      -39.396     -74.123    -156.894
  H      -35.675     -73.435    -162.875
  H      -41.839     -74.256    -158.312
  H      -42.571     -72.168    -157.181
  H      -41.773     -73.284    -156.062
  P      -38.777     -76.418    -157.829
  C      -36.538     -75.933    -159.068
  O      -37.252     -75.924    -157.849
  O      -38.793     -77.645    -158.855
  O      -39.329     -76.781    -156.490
  H      -38.684     -78.488    -158.372
  H      -36.264     -74.904    -159.326
  H      -37.123     -76.360    -159.888
  H      -35.628     -76.523    -158.942
  H      -43.503     -68.997    -154.905
  H      -42.422     -69.178    -156.267
  H      -41.833     -68.500    -154.768

 3  4  5  6  7  8  9  10  11  12  23  26  30  31 0
 6-311+G(2d,p)
 ****
 33  35  36  37  38 0
 6-311+G(2d,p)
 ****
 1  2  13  14  15  16  17  18  19  20  21  22  24  25 0
 3-21G
 ****
 27  28  29  32  34  39  40  41  42  43  44  45  46  47  48  49 0
 3-21G
 ****


