%nproc=1
%NoSave
%Mem=1900MB
#P OB98/GEN NMR

erre ene a

0 1
  C     -899.383    -175.003    -409.843
  O     -898.143    -174.382    -409.469
  P     -898.203    -173.109    -408.490
  C     -896.983    -174.183    -406.442
  O     -898.203    -173.682    -406.996
  C     -896.693    -173.493    -405.089
  O     -897.733    -173.851    -404.164
  C     -895.393    -173.919    -404.451
  O     -894.283    -173.256    -405.046
  C     -895.603    -173.561    -403.002
  O     -895.333    -172.182    -402.762
  C     -897.123    -173.851    -402.811
  N     -897.373    -175.096    -402.095
  C     -897.343    -175.032    -400.727
  O     -897.093    -174.010    -400.112
  N     -897.583    -176.207    -400.055
  C     -897.773    -177.449    -400.640
  O     -897.913    -178.467    -399.976
  C     -897.773    -177.474    -402.120
  C     -897.573    -176.309    -402.777
  O     -899.693    -172.549    -408.664
  O     -897.183    -172.066    -408.776
  H     -895.903    -171.683    -403.408
  H     -899.693    -171.580    -408.591
  H     -897.573    -176.178    -399.046
  H     -897.933    -178.406    -402.594
  H     -897.563    -176.286    -403.856
  H     -897.583    -173.023    -402.271
  H     -894.963    -174.131    -402.315
  H     -895.283    -175.035    -404.539
  H     -896.713    -172.411    -405.257
  H     -896.173    -173.968    -407.122
  H     -897.043    -175.262    -406.325
  P     -892.823    -173.909    -404.830
  C     -892.833    -174.827    -407.286
  O     -892.743    -175.116    -405.930
  O     -893.043    -174.641    -403.417
  O     -891.713    -172.906    -404.860
  H     -893.953    -174.977    -403.314
  H     -892.353    -173.868    -407.541
  H     -893.903    -174.780    -407.591
  H     -892.313    -175.621    -407.831
  H     -899.186    -175.830    -410.492
  H     -900.000    -174.291    -410.350
  H     -899.887    -175.350    -408.965

 3  4  5  6  7  8  9  10  11  12  13  23  28  29  30  31  32 0
 6-311+G(2d,p)
 ****
 33  34 0
 6-311+G(2d,p)
 ****
 1  2  14  15  16  17  18  19  20  21  22  24  25  26 0
 3-21G
 ****
 27  35  36  37  38  39  40  41  42  43  44  45 0
 3-21G
 ****


