%nproc=1
%NoSave
%Mem=1900MB
#P OB98/GEN NMR

erre ene a

0 1
  C      246.646     723.488    1168.615
  O      247.107     723.527    1167.274
  P      246.456     724.628    1166.289
  C      244.411     723.310    1165.290
  O      245.728     723.805    1165.127
  C      243.985     722.544    1164.029
  O      243.924     723.451    1162.899
  C      244.928     721.422    1163.619
  O      244.774     720.278    1164.424
  C      244.526     721.239    1162.152
  O      243.334     720.448    1162.067
  C      244.232     722.686    1161.715
  N      245.315     723.292    1160.967
  C      245.688     722.663    1159.775
  O      245.133     721.643    1159.357
  N      246.722     723.235    1159.085
  C      247.453     724.311    1159.504
  O      248.403     724.757    1158.850
  C      247.063     724.922    1160.761
  C      246.010     724.395    1161.445
  O      247.793     725.220    1165.615
  O      245.631     725.627    1167.010
  H      248.512     724.556    1165.595
  H      243.023     720.519    1161.134
  H      246.993     722.807    1158.224
  H      247.616     725.794    1161.132
  H      245.719     724.822    1162.394
  H      243.323     722.716    1161.092
  H      245.320     720.734    1161.567
  H      245.962     721.782    1163.677
  H      242.964     722.151    1164.208
  H      243.731     724.165    1165.437
  H      244.370     722.681    1166.173
  P      246.141     719.550    1164.912
  C      246.521     718.415    1162.591
  O      246.309     718.267    1163.984
  O      245.691     718.979    1166.321
  O      247.322     720.467    1164.970
  H      244.799     718.573    1166.307
  H      246.974     717.506    1162.196
  H      247.197     719.252    1162.375
  H      245.567     718.577    1162.091
  H      247.161     722.716    1169.147
  H      245.595     723.288    1168.625
  H      246.834     724.431    1169.084

 3  4  5  6  7  8  9  10  11  12  13  24  28  29  30  31  32 0
 6-311+G(2d,p)
 ****
 33  34 0
 6-311+G(2d,p)
 ****
 1  2  14  15  16  17  18  19  20  21  22  23  25  26  27 0
 3-21G
 ****
 35  36  37  38  39  40  41  42  43  44  45 0
 3-21G
 ****


