%nproc=1
%NoSave
%Mem=1900MB
#P OB98/GEN NMR

erre ene a

0 1
  C      190.823    -317.794    -613.198
  O      189.780    -318.734    -613.049
  H      191.761    -318.331    -613.335
  H      190.896    -317.182    -612.294
  H      190.655    -317.149    -614.062
  P      188.267    -318.238    -613.191
  C      187.808    -317.363    -610.801
  O      188.066    -317.024    -612.159
  C      188.156    -316.199    -609.866
  O      187.240    -315.102    -610.096
  C      187.988    -316.619    -608.407
  O      188.856    -315.901    -607.535
  C      186.549    -316.234    -608.102
  O      186.297    -316.066    -606.712
  C      186.417    -314.948    -608.923
  N      181.960    -312.862    -607.591
  C      183.088    -313.069    -606.828
  N      183.013    -312.699    -605.533
  N      184.188    -313.618    -607.289
  C      184.094    -314.012    -608.581
  C      183.019    -313.879    -609.434
  C      181.825    -313.239    -608.928
  O      180.795    -313.043    -609.558
  N      183.297    -314.411    -610.673
  C      184.523    -314.872    -610.563
  N      185.059    -314.639    -609.318
  O      187.413    -319.414    -612.511
  O      187.797    -317.963    -614.586
  H      185.417    -315.656    -606.621
  H      186.509    -319.427    -612.863
  H      181.150    -312.428    -607.195
  H      185.074    -315.377    -611.351
  H      186.800    -314.087    -608.354
  H      185.896    -317.035    -608.462
  H      182.139    -312.443    -605.092
  H      188.153    -317.689    -608.267
  H      183.704    -313.108    -604.892
  H      189.160    -315.820    -610.087
  H      188.428    -318.236    -610.562
  H      186.763    -317.657    -610.679
  P      190.070    -316.712    -606.861
  C      189.558    -316.876    -604.289
  O      189.489    -317.472    -605.574
  O      190.996    -315.562    -606.256
  O      190.807    -317.589    -607.820
  H      191.793    -315.449    -606.805
  H      189.121    -317.534    -603.567
  H      189.023    -315.949    -604.297
  H      190.581    -316.695    -604.034

 6  7  8  9  10  11  12  13  14  15  26  29  33  34 0
 6-311+G(2d,p)
 ****
 36  38  39  40  41 0
 6-311+G(2d,p)
 ****
 1  2  3  4  5  16  17  18  19  20  21  22  23  24  25 0
 3-21G
 ****
 27  28  30  31  32  35  37  42  43  44  45  46  47 0
 3-21G
 ****
 48  49 0
 3-21G
 ****


