%nproc=1
%NoSave
%Mem=1900MB
#P OB98/GEN NMR

erre ene a

0 1
  C      -12.933     -75.899      96.894
  O      -11.906     -76.272      95.972
  P      -12.320     -76.352      94.425
  C      -11.560     -73.931      93.866
  O      -11.404     -75.320      93.609
  C      -12.479     -73.302      92.819
  O      -13.100     -72.094      93.309
  C      -11.750     -72.889      91.546
  O      -11.439     -74.019      90.748
  C      -12.768     -71.937      90.930
  O      -13.811     -72.674      90.269
  C      -13.340     -71.232      92.171
  N      -13.978     -66.709      94.477
  C      -14.759     -67.809      94.413
  N      -14.520     -68.973      93.775
  C      -13.323     -68.944      93.166
  C      -12.415     -67.898      93.147
  C      -12.783     -66.732      93.839
  N      -11.992     -65.607      93.893
  N      -11.296     -68.238      92.415
  C      -11.536     -69.459      91.980
  N      -12.743     -69.932      92.418
  O      -13.771     -75.678      94.396
  O      -12.347     -77.743      93.883
  H      -14.524     -72.040      90.052
  H      -14.452     -76.359      94.244
  H      -15.707     -67.744      94.943
  H      -10.870     -70.035      91.350
  H      -14.423     -71.080      92.099
  H      -12.330     -71.259      90.193
  H      -10.831     -72.345      91.796
  H      -13.267     -74.027      92.577
  H      -10.587     -73.432      93.854
  H      -12.364     -64.786      94.344
  H      -11.141     -65.581      93.349
  H      -11.966     -73.805      94.876
  P       -9.895     -74.298      90.419
  C       -9.412     -76.361      91.871
  O       -9.755     -75.891      90.580
  O       -9.179     -73.749      91.736
  O       -9.414     -73.733      89.127
  H       -9.632     -74.048      92.545
  H       -9.384     -77.453      91.849
  H      -10.159     -76.038      92.601
  H       -8.425     -75.988      92.156
  H      -12.533     -75.882      97.886
  H      -13.732     -76.609      96.844
  H      -13.303     -74.927      96.642

 3  4  5  6  7  8  9  10  11  12  22  25  29  30  31  32 0
 6-311+G(2d,p)
 ****
 33  36  37 0
 6-311+G(2d,p)
 ****
 1  2  13  14  15  16  17  18  19  20  21  23  24  26 0
 3-21G
 ****
 27  28  34  35  38  39  40  41  42  43  44  45  46  47  48 0
 3-21G
 ****


