%nproc=1
%NoSave
%Mem=1900MB
#P OB98/GEN NMR

erre ene a

0 1
  C       42.492      80.749    -108.019
  O       43.345      81.572    -107.249
  P       43.841      82.991    -107.796
  C       46.012      81.921    -108.642
  O       44.893      82.729    -108.978
  C       47.007      81.836    -109.799
  O       46.417      81.075    -110.885
  C       47.437      83.200    -110.358
  O       48.824      83.104    -110.693
  C       46.592      83.337    -111.610
  O       47.152      84.250    -112.547
  C       46.536      81.876    -112.078
  N       45.438      81.628    -112.999
  C       45.652      81.946    -114.341
  O       46.679      82.534    -114.680
  N       44.690      81.602    -115.258
  C       43.542      81.158    -114.843
  N       42.643      80.764    -115.786
  C       43.194      81.046    -113.411
  C       44.189      81.252    -112.554
  O       44.315      83.944    -106.746
  O       42.570      83.582    -108.571
  H       42.375      84.477    -108.228
  H       46.664      84.173    -113.394
  H       42.187      80.793    -113.115
  H       44.041      81.166    -111.482
  H       47.478      81.592    -112.566
  H       45.590      83.692    -111.346
  H       47.291      84.016    -109.644
  H       47.886      81.280    -109.452
  H       42.931      80.817    -116.755
  H       45.651      80.917    -108.409
  H       41.877      80.126    -115.571
  H       46.499      82.316    -107.741
  P       49.748      84.405    -110.500
  C       49.459      85.322    -112.911
  O       49.242      85.523    -111.531
  O       51.125      83.925    -111.176
  O       50.001      84.841    -109.093
  H       51.862      84.435    -110.791
  H       49.115      86.207    -113.453
  H       48.888      84.456    -113.263
  H       50.521      85.174    -113.119
  H       42.279      79.851    -107.478
  H       42.972      80.504    -108.943
  H       41.579      81.270    -108.219

 3  4  5  6  7  8  9  10  11  12  13  24  27  28  29  30  32 0
 6-311+G(2d,p)
 ****
 34  35 0
 6-311+G(2d,p)
 ****
 1  2  14  15  16  17  18  19  20  21  22  23  25  26 0
 3-21G
 ****
 31  33  36  37  38  39  40  41  42  43  44  45  46 0
 3-21G
 ****


