%nproc=1
%NoSave
%Mem=1900MB
#P OB98/GEN NMR

erre ene a

0 1
  C     -510.808    -264.492    -494.337
  O     -510.019    -263.748    -493.419
  P     -508.481    -264.125    -493.157
  C     -509.098    -264.086    -490.661
  O     -508.187    -263.635    -491.657
  C     -508.686    -263.544    -489.293
  O     -507.464    -264.207    -488.889
  C     -508.375    -262.052    -489.235
  O     -509.507    -261.215    -489.069
  C     -507.517    -261.992    -487.973
  O     -508.361    -262.032    -486.810
  C     -506.698    -263.276    -488.083
  N     -501.654    -263.020    -487.236
  C     -502.695    -263.287    -486.416
  N     -504.012    -263.318    -486.712
  C     -504.208    -263.078    -488.023
  C     -503.248    -262.797    -488.979
  C     -501.911    -262.772    -488.539
  N     -500.848    -262.522    -489.381
  N     -503.834    -262.587    -490.213
  C     -505.124    -262.755    -489.999
  N     -505.398    -263.062    -488.697
  O     -507.536    -263.634    -494.201
  O     -508.481    -265.716    -493.020
  H     -508.848    -261.187    -486.778
  H     -507.572    -266.063    -493.126
  H     -502.442    -263.503    -485.385
  H     -505.889    -262.662    -490.759
  H     -506.532    -263.753    -487.107
  H     -506.927    -261.074    -487.901
  H     -507.773    -261.735    -490.096
  H     -509.469    -263.809    -488.568
  H     -509.066    -265.183    -490.639
  H     -499.923    -262.652    -489.010
  H     -501.025    -262.500    -490.377
  H     -510.111    -263.777    -490.921
  P     -509.594    -259.900    -489.989
  C     -509.322    -257.795    -488.458
  O     -510.187    -258.743    -489.047
  O     -510.302    -260.098    -491.283
  O     -508.056    -259.485    -490.157
  H     -507.617    -259.180    -489.347
  H     -509.929    -257.015    -487.993
  H     -508.674    -257.334    -489.209
  H     -508.712    -258.270    -487.686
  H     -511.797    -264.085    -494.368
  H     -510.852    -265.514    -494.023
  H     -510.369    -264.437    -495.311

 3  4  5  6  7  8  9  10  11  12  22  25  29  30  31  32 0
 6-311+G(2d,p)
 ****
 33  36  37 0
 6-311+G(2d,p)
 ****
 1  2  13  14  15  16  17  18  19  20  21  23  24  26 0
 3-21G
 ****
 27  28  34  35  38  39  40  41  42  43  44  45  46  47  48 0
 3-21G
 ****


