%nproc=1
%NoSave
%Mem=1900MB
#P OB98/GEN NMR

erre ene a

0 1
  C      171.355      48.275    -185.970
  O      171.712      49.369    -186.791
  H      171.196      47.397    -186.601
  H      170.430      48.491    -185.428
  H      172.161      48.061    -185.261
  P      171.890      50.791    -186.070
  C      170.283      52.615    -185.147
  O      170.421      51.407    -185.885
  C      169.083      53.400    -185.669
  O      169.335      53.826    -187.032
  C      167.793      52.594    -185.731
  O      167.161      52.474    -184.467
  C      166.979      53.428    -186.707
  O      166.310      54.511    -186.049
  C      168.053      53.946    -187.684
  N      168.015      53.230    -188.957
  C      166.883      53.449    -189.738
  O      165.964      54.194    -189.401
  N      166.824      52.750    -190.914
  C      167.740      51.833    -191.347
  O      167.597      51.199    -192.385
  C      168.907      51.632    -190.473
  C      168.989      52.325    -189.332
  O      172.544      51.700    -187.214
  O      172.720      50.768    -184.831
  H      173.488      51.850    -187.017
  H      165.747      54.105    -185.361
  H      166.013      52.895    -191.494
  H      169.653      50.912    -190.786
  H      169.834      52.184    -188.666
  H      167.903      55.013    -187.887
  H      166.216      52.824    -187.193
  H      167.981      51.608    -186.175
  H      168.952      54.295    -185.047
  H      171.186      53.224    -185.265
  H      170.160      52.372    -184.085
  P      166.707      51.009    -183.994
  C      165.022      49.310    -185.089
  O      165.402      50.657    -184.857
  O      166.152      51.333    -182.528
  O      167.811      50.007    -184.047
  H      165.829      52.250    -182.458
  H      164.131      49.288    -185.681
  H      164.840      48.824    -184.153
  H      165.808      48.802    -185.608

 6  7  8  9  10  11  12  13  14  15  16  27  31  32  33  34  35 0
 6-311+G(2d,p)
 ****
 36  37 0
 6-311+G(2d,p)
 ****
 1  2  3  4  5  17  18  19  20  21  22  23  24  25 0
 3-21G
 ****
 26  28  29  30  38  39  40  41  42  43  44  45 0
 3-21G
 ****


