%nproc=1
%NoSave
%Mem=1900MB
#P OB98/GEN NMR

erre ene a

0 1
  C     -179.040    -536.177     368.144
  O     -178.382    -536.440     366.899
  P     -179.322    -536.678     365.616
  C     -177.984    -535.159     363.999
  O     -178.443    -536.472     364.292
  C     -176.575    -535.166     363.388
  O     -175.580    -535.526     364.385
  C     -176.424    -536.151     362.218
  O     -175.495    -535.567     361.295
  C     -175.776    -537.356     362.866
  O     -175.118    -538.176     361.897
  C     -174.839    -536.669     363.882
  N     -174.419    -537.554     364.968
  C     -173.456    -538.512     364.664
  O     -173.039    -538.640     363.500
  N     -172.997    -539.345     365.654
  C     -173.509    -539.258     366.851
  N     -173.026    -540.117     367.795
  C     -174.579    -538.301     367.201
  C     -174.978    -537.489     366.225
  O     -180.302    -535.409     365.634
  O     -180.091    -537.963     365.679
  H     -175.007    -539.073     362.281
  H     -181.228    -535.701     365.544
  H     -174.989    -538.283     368.200
  H     -175.747    -536.752     366.391
  H     -173.945    -536.297     363.389
  H     -176.528    -537.963     363.385
  H     -177.369    -536.370     361.712
  H     -176.345    -534.150     363.043
  H     -172.285    -540.752     367.507
  H     -177.974    -534.560     364.911
  H     -173.348    -540.132     368.744
  H     -178.702    -534.673     363.328
  P     -176.086    -534.704     360.078
  C     -174.090    -533.087     359.934
  O     -174.790    -534.151     359.305
  O     -176.601    -533.385     360.837
  O     -177.164    -535.304     359.237
  H     -177.047    -532.796     360.197
  H     -173.175    -532.899     359.366
  H     -173.827    -533.364     360.966
  H     -174.701    -532.183     359.933
  H     -178.308    -536.038     368.912
  H     -179.669    -537.005     368.397
  H     -179.634    -535.292     368.053

 3  4  5  6  7  8  9  10  11  12  13  21  23  27  28  29  30  32 0
 6-311+G(2d,p)
 ****
 34  35 0
 6-311+G(2d,p)
 ****
 1  2  14  15  16  17  18  19  20  22  24  25  26 0
 3-21G
 ****
 31  33  36  37  38  39  40  41  42  43  44  45  46 0
 3-21G
 ****


