%nproc=1
%NoSave
%Mem=1900MB
#P OB98/GEN NMR

erre ene a

0 1
  C     -936.807     276.902     497.144
  O     -937.057     277.290     495.796
  P     -938.116     276.435     494.941
  C     -939.859     278.288     494.389
  O     -938.855     277.407     493.905
  C     -940.166     279.382     493.362
  O     -939.046     280.287     493.224
  C     -940.437     278.854     491.965
  O     -941.773     278.412     491.821
  C     -940.194     280.113     491.125
  O     -941.356     280.965     491.182
  C     -939.016     280.766     491.855
  N     -935.814     281.637     487.943
  C     -937.068     282.085     488.204
  N     -937.860     281.799     489.260
  C     -937.234     280.958     490.106
  C     -935.971     280.426     489.970
  C     -935.244     280.792     488.822
  N     -933.969     280.323     488.570
  N     -935.677     279.588     491.026
  C     -936.741     279.647     491.812
  N     -937.717     280.454     491.286
  O     -939.266     276.111     496.015
  O     -937.553     275.184     494.359
  H     -941.116     281.798     490.726
  H     -939.646     275.224     495.844
  H     -937.479     282.763     487.467
  H     -936.860     279.117     492.743
  H     -939.102     281.864     491.881
  H     -940.017     279.887     490.076
  H     -939.698     278.086     491.679
  H     -941.033     279.950     493.717
  H     -939.547     278.739     495.345
  H     -933.505     280.654     487.737
  H     -933.519     279.708     489.238
  H     -940.768     277.700     494.609
  P     -942.010     277.041     491.030
  C     -941.568     275.317     492.940
  O     -942.527     275.995     492.140
  O     -940.522     276.550     490.715
  O     -942.846     277.156     489.802
  H     -940.512     276.040     489.868
  H     -942.079     274.898     493.808
  H     -940.795     276.008     493.289
  H     -941.108     274.498     492.373
  H     -936.085     277.562     497.577
  H     -936.431     275.900     497.163
  H     -937.717     276.952     497.704

 3  4  5  6  7  8  9  10  11  12  22  25  29  30  31  32 0
 6-311+G(2d,p)
 ****
 33  36  37 0
 6-311+G(2d,p)
 ****
 1  2  13  14  15  16  17  18  19  20  21  23  24  26 0
 3-21G
 ****
 27  28  34  35  38  39  40  41  42  43  44  45  46  47  48 0
 3-21G
 ****


