%nproc=1
%NoSave
%Mem=1900MB
#P OB98/GEN NMR

erre ene a

0 1
  C       10.117     -65.197     -75.152
  O       10.262     -65.710     -76.465
  P       11.131     -67.048     -76.651
  C       13.581     -67.739     -76.118
  O       12.610     -66.702     -76.134
  C       14.918     -67.218     -76.637
  O       14.838     -66.920     -78.047
  C       15.381     -65.924     -75.981
  O       15.997     -66.146     -74.724
  C       16.402     -65.432     -76.994
  O       17.650     -66.129     -76.812
  C       15.754     -65.834     -78.325
  N       15.820     -62.468     -82.102
  C       16.629     -63.565     -81.882
  N       17.634     -63.756     -82.763
  N       16.467     -64.401     -80.892
  C       15.425     -64.080     -80.085
  C       14.552     -63.022     -80.202
  C       14.751     -62.098     -81.296
  O       14.102     -61.081     -81.512
  N       13.620     -63.032     -79.199
  C       13.922     -64.092     -78.476
  N       15.037     -64.736     -78.948
  O       11.313     -67.153     -78.238
  O       10.515     -68.276     -76.073
  H       17.824     -66.141     -75.850
  H       11.586     -68.057     -78.483
  H       15.990     -61.850     -82.878
  H       13.378     -64.419     -77.600
  H       16.492     -66.205     -79.043
  H       16.617     -64.364     -76.896
  H       17.851     -63.113     -83.511
  H       14.561     -65.198     -75.910
  H       18.282     -64.516     -82.592
  H       15.667     -68.008     -76.501
  H       13.239     -68.563     -76.748
  H       13.693     -68.112     -75.094
  P       15.551     -65.181     -73.520
  C       15.883     -62.650     -73.037
  O       16.222     -63.763     -73.841
  O       16.397     -65.736     -72.281
  O       14.084     -65.171     -73.247
  H       15.942     -65.536     -71.442
  H       16.612     -61.854     -73.216
  H       15.904     -62.911     -71.976
  H       14.889     -62.285     -73.309
  H        9.518     -64.311     -75.180
  H       11.081     -64.964     -74.752
  H        9.642     -65.929     -74.533

 3  4  5  6  7  8  9  10  11  12  23  26  30  31 0
 6-311+G(2d,p)
 ****
 33  35  36  37  38 0
 6-311+G(2d,p)
 ****
 1  2  13  14  15  16  17  18  19  20  21  22  24  25 0
 3-21G
 ****
 27  28  29  32  34  39  40  41  42  43  44  45  46  47  48  49 0
 3-21G
 ****


