%nproc=1
%NoSave
%Mem=1900MB
#P OB98/GEN NMR

erre ene a

0 1
  C     1168.281    -793.786     -77.334
  O     1168.922    -793.702     -78.603
  H     1168.865    -794.421     -76.657
  H     1168.203    -792.790     -76.902
  H     1167.276    -794.199     -77.458
  P     1169.125    -795.074     -79.406
  C     1166.766    -795.024     -80.513
  O     1167.645    -795.680     -79.604
  C     1166.323    -796.039     -81.571
  O     1165.459    -797.034     -80.988
  C     1165.489    -795.424     -82.706
  O     1166.324    -794.808     -83.719
  C     1164.790    -796.647     -83.258
  O     1165.722    -797.420     -84.067
  C     1164.448    -797.412     -81.969
  N     1159.455    -798.158     -82.648
  C     1160.505    -798.568     -83.370
  N     1161.811    -798.313     -83.089
  C     1161.947    -797.581     -82.025
  C     1160.955    -797.049     -81.196
  C     1159.639    -797.394     -81.545
  N     1158.533    -796.959     -80.844
  N     1161.500    -796.306     -80.168
  C     1162.790    -796.368     -80.353
  N     1163.118    -797.114     -81.463
  O     1169.772    -796.056     -78.333
  O     1169.933    -794.971     -80.663
  H     1165.233    -798.223     -84.355
  H     1170.241    -796.799     -78.776
  H     1160.293    -799.185     -84.231
  H     1163.533    -795.908     -79.717
  H     1164.509    -798.502     -82.096
  H     1163.940    -796.409     -83.889
  H     1164.743    -794.716     -82.324
  H     1167.196    -796.549     -81.981
  H     1167.311    -794.213     -81.010
  H     1157.631    -797.087     -81.275
  H     1158.672    -796.270     -80.105
  H     1165.902    -794.634     -79.975
  P     1165.828    -793.390     -84.291
  C     1167.448    -791.735     -83.054
  O     1166.124    -792.307     -83.154
  O     1164.247    -793.515     -84.280
  O     1166.377    -793.064     -85.650
  H     1163.845    -792.956     -84.990
  H     1167.473    -791.034     -82.246
  H     1167.691    -791.235     -83.968
  H     1168.160    -792.513     -82.873

 6  7  8  9  10  11  12  13  14  15  25  28  32  33  34  35 0
 6-311+G(2d,p)
 ****
 36  39  40 0
 6-311+G(2d,p)
 ****
 1  2  3  4  5  16  17  18  19  20  21  22  23  24 0
 3-21G
 ****
 26  27  29  30  31  37  38  41  42  43  44  45  46  47 0
 3-21G
 ****
 48 0
 3-21G
 ****


