%nproc=1
%NoSave
%Mem=1900MB
#P OB98/GEN NMR

erre ene a

0 1
  C     -120.393     411.967     464.464
  O     -121.753     411.593     464.585
  H     -120.252     412.446     463.488
  H     -119.743     411.091     464.519
  H     -120.129     412.682     465.245
  P     -122.201     410.722     465.854
  C     -122.400     408.418     464.716
  O     -121.646     409.236     465.609
  C     -122.146     406.935     464.996
  O     -123.071     406.151     464.198
  C     -120.720     406.481     464.656
  O     -120.306     405.521     465.633
  C     -120.891     405.823     463.303
  O     -119.861     404.888     463.042
  C     -122.301     405.222     463.411
  N     -122.890     405.011     462.087
  C     -123.976     404.129     462.024
  O     -124.401     403.595     463.052
  N     -124.521     403.825     460.802
  C     -123.987     404.316     459.724
  N     -124.547     403.942     458.542
  C     -122.819     405.221     459.740
  C     -122.323     405.524     460.944
  O     -123.645     410.796     466.227
  O     -121.263     411.267     467.033
  H     -120.022     404.073     463.565
  H     -121.703     412.000     467.500
  H     -122.406     405.595     458.810
  H     -121.467     406.176     461.049
  H     -122.277     404.263     463.945
  H     -120.867     406.584     462.516
  H     -120.000     407.308     464.620
  H     -122.382     406.736     466.046
  H     -125.326     403.301     458.581
  H     -122.084     408.659     463.692
  H     -124.188     404.225     457.635
  H     -123.464     408.643     464.819
  P     -118.995     405.772     466.522
  C     -117.284     406.054     464.642
  O     -117.976     406.707     465.706
  O     -118.379     404.535     467.097
  O     -119.512     406.738     467.702
  H     -118.982     406.577     468.504
  H     -116.632     406.752     464.159
  H     -117.992     405.679     463.933
  H     -116.709     405.242     465.036

 6  7  8  9  10  11  12  13  14  15  16  26  30  31  32  33  35 0
 6-311+G(2d,p)
 ****
 37  38 0
 6-311+G(2d,p)
 ****
 1  2  3  4  5  17  18  19  20  21  22  23  24  25 0
 3-21G
 ****
 27  28  29  34  36  39  40  41  42  43  44  45  46 0
 3-21G
 ****


