%nproc=1
%NoSave
%Mem=1900MB
#P OB98/GEN NMR

erre ene a

0 1
  C      -59.724      84.736      40.451
  O      -60.384      85.941      40.788
  H      -59.658      84.110      41.343
  H      -58.713      84.948      40.093
  H      -60.285      84.199      39.681
  P      -60.602      86.998      39.601
  C      -59.046      88.117      37.844
  O      -59.142      87.360      39.044
  C      -57.645      88.706      37.719
  O      -57.468      89.759      38.694
  C      -56.530      87.706      37.996
  O      -56.285      86.851      36.894
  C      -55.371      88.639      38.310
  O      -54.735      89.106      37.113
  C      -56.063      89.800      39.032
  N      -52.622      89.524      42.793
  C      -52.488      89.675      41.457
  N      -53.459      89.752      40.522
  C      -54.673      89.688      41.094
  C      -54.965      89.539      42.439
  C      -53.869      89.458      43.314
  N      -54.003      89.280      44.671
  N      -56.329      89.473      42.636
  C      -56.854      89.589      41.432
  N      -55.892      89.725      40.470
  O      -61.054      88.323      40.376
  O      -61.596      86.592      38.566
  H      -54.107      89.800      37.391
  H      -62.024      88.415      40.325
  H      -51.468      89.729      41.090
  H      -57.913      89.572      41.207
  H      -55.680      90.776      38.711
  H      -54.617      88.133      38.911
  H      -56.763      87.120      38.894
  H      -57.536      89.145      36.719
  H      -59.778      88.931      37.869
  H      -59.269      87.464      36.994
  H      -53.173      89.161      45.229
  H      -54.925      89.114      45.054
  P      -55.960      85.312      37.204
  C      -54.526      84.344      39.155
  O      -54.623      85.276      38.087
  O      -55.497      84.726      35.789
  O      -57.100      84.541      37.778
  H      -55.800      83.802      35.697
  H      -53.577      84.452      39.637
  H      -54.620      83.350      38.770
  H      -55.308      84.528      39.861

 6  7  8  9  10  11  12  13  14  15  25  28  32  33  34  35 0
 6-311+G(2d,p)
 ****
 36  37  40 0
 6-311+G(2d,p)
 ****
 1  2  3  4  5  16  17  18  19  20  21  22  23  24 0
 3-21G
 ****
 26  27  29  30  31  38  39 41  42  43  44  45  46  47  48 0
 3-21G
 ****


