%nproc=1
%NoSave
%Mem=1900MB
#P OB98/GEN NMR

erre ene a

0 1
  C      645.860     537.432     158.683
  O      645.744     536.160     159.289
  H      646.272     537.298     157.678
  H      646.545     538.062     159.263
  H      644.885     537.912     158.601
  P      645.065     536.054     160.739
  C      642.656     536.183     161.625
  O      643.549     536.546     160.578
  C      641.380     537.010     161.553
  O      641.721     538.417     161.579
  C      640.544     536.752     160.290
  O      639.163     536.803     160.636
  C      640.889     537.935     159.398
  O      639.847     538.232     158.467
  C      641.131     539.045     160.422
  N      641.263     543.216     157.571
  C      640.193     542.447     157.977
  N      638.967     542.821     157.536
  N      640.298     541.387     158.742
  C      641.577     541.137     159.115
  C      642.728     541.813     158.785
  C      642.593     542.982     157.923
  O      643.503     543.689     157.522
  N      643.838     541.232     159.345
  C      643.366     540.190     160.010
  N      642.000     540.084     159.893
  O      645.821     536.714     161.849
  O      644.919     534.477     160.986
  H      639.062     538.514     158.994
  H      645.632     534.148     161.561
  H      641.128     544.009     156.973
  H      643.958     539.498     160.578
  H      640.199     539.532     160.729
  H      641.805     537.721     158.830
  H      638.799     543.628     156.960
  H      640.779     535.795     159.813
  H      638.167     542.286     157.840
  H      640.780     536.808     162.457
  H      643.156     536.355     162.579
  H      642.418     535.114     161.540
  P      638.179     535.680     160.043
  C      638.824     533.181     159.986
  O      638.488     534.295     160.811
  O      638.119     535.591     158.559
  O      636.750     536.096     160.662
  H      636.049     535.812     160.041
  H      639.007     532.324     160.601
  H      639.703     533.408     159.421
  H      638.014     532.975     159.318

 6  7  8  9  10  11  12  13  14  15  26  29  33  34 0
 6-311+G(2d,p)
 ****
 36  38  39  40  41 0
 6-311+G(2d,p)
 ****
 1  2  3  4  5  16  17  18  19  20  21  22  23  24  25 0
 3-21G
 ****
 27  28  30  31  32  35  37  42  43  44  45  46  47 0
 3-21G
 ****
 48  49 0
 3-21G
 ****


