%nproc=1
%NoSave
%Mem=1900MB
#P OB98/GEN NMR

erre ene a

0 1
  C      -11.372     326.062      56.366
  O      -11.550     324.785      56.949
  H      -12.344     326.560      56.305
  H      -10.958     325.974      55.357
  H      -10.708     326.670      56.987
  P      -10.304     323.783      57.011
  C       -9.819     321.452      56.020
  O      -10.573     322.654      55.901
  C      -10.248     320.436      54.959
  O      -11.604     320.001      55.256
  C      -10.230     320.991      53.530
  O       -9.787     319.957      52.649
  C      -11.686     321.322      53.279
  O      -11.985     321.344      51.897
  C      -12.409     320.237      54.084
  N      -13.771     320.647      54.427
  C      -14.808     320.011      53.731
  O      -14.555     319.146      52.893
  N      -16.101     320.418      53.952
  C      -16.336     321.411      54.755
  N      -17.635     321.786      54.896
  C      -15.272     322.124      55.488
  C      -14.026     321.696      55.281
  O       -9.950     323.256      58.362
  O       -9.101     324.631      56.381
  H      -11.928     320.435      51.539
  H       -8.628     325.114      57.084
  H      -15.520     322.951      56.139
  H      -13.178     322.172      55.766
  H      -12.456     319.297      53.514
  H      -11.919     322.313      53.694
  H       -9.586     321.874      53.425
  H       -9.605     319.550      55.045
  H      -18.328     321.280      54.354
  H      -10.001     321.040      57.019
  H      -17.937     322.569      55.458
  H       -8.753     321.673      55.919
  P       -8.523     320.183      51.684
  C       -8.149     320.897      49.253
  O       -9.032     320.248      50.159
  O       -7.379     319.251      51.917
  O       -8.081     321.697      51.986
  H       -7.117     321.785      51.847
  H       -8.575     320.888      48.272
  H       -7.211     320.383      49.239
  H       -7.997     321.909      49.566

 6  7  8  9  10  11  12  13  14  15  16  26  30  31  32  33  35 0
 6-311+G(2d,p)
 ****
 37  38 0
 6-311+G(2d,p)
 ****
 1  2  3  4  5  17  18  19  20  21  22  23  24  25 0
 3-21G
 ****
 27  28  29  34  36  39  40  41  42  43  44  45  46 0
 3-21G
 ****


