%nproc=1
%NoSave
%Mem=1900MB
#P OB98/GEN NMR

erre ene a

0 1
  C     -495.101    -461.227     515.296
  O     -494.900    -459.882     514.906
  H     -495.180    -461.269     516.386
  H     -494.254    -461.846     514.984
  H     -496.030    -461.616     514.857
  P     -494.740    -459.609     513.332
  C     -496.221    -457.494     513.165
  O     -494.908    -458.023     513.136
  C     -496.235    -456.125     513.866
  O     -496.209    -456.285     515.299
  C     -495.048    -455.236     513.501
  O     -495.275    -454.551     512.276
  C     -494.999    -454.288     514.694
  O     -495.977    -453.239     514.571
  C     -495.364    -455.227     515.862
  N     -491.752    -454.421     519.292
  C     -492.799    -453.626     518.902
  N     -492.875    -452.391     519.472
  N     -493.699    -453.977     518.021
  C     -493.486    -455.212     517.508
  C     -492.484    -456.106     517.830
  C     -491.508    -455.705     518.829
  O     -490.588    -456.389     519.264
  N     -492.610    -457.267     517.112
  C     -493.655    -457.068     516.335
  N     -494.209    -455.818     516.528
  O     -496.087    -460.203     512.702
  O     -493.527    -460.220     512.701
  H     -495.740    -452.657     513.827
  H     -495.903    -460.527     511.806
  H     -491.098    -454.095     519.994
  H     -494.050    -457.777     515.620
  H     -495.957    -454.720     516.639
  H     -494.033    -453.809     514.800
  H     -492.056    -451.943     519.887
  H     -494.111    -455.829     513.459
  H     -493.635    -451.789     519.185
  H     -497.180    -455.634     513.606
  H     -496.872    -458.180     513.733
  H     -496.600    -457.392     512.147
  P     -494.260    -454.833     511.061
  C     -495.855    -454.177     509.118
  O     -494.686    -453.851     509.868
  O     -494.703    -456.280     510.531
  O     -492.803    -454.790     511.438
  H     -493.982    -456.670     509.978
  H     -496.012    -453.436     508.362
  H     -496.702    -454.205     509.771
  H     -495.728    -455.135     508.658

 6  7  8  9  10  11  12  13  14  15  26  29  33  34 0
 6-311+G(2d,p)
 ****
 36  38  39  40  41 0
 6-311+G(2d,p)
 ****
 1  2  3  4  5  16  17  18  19  20  21  22  23  24  25 0
 3-21G
 ****
 27  28  30  31  32  35  37  42  43  44  45  46  47 0
 3-21G
 ****
 48  49 0
 3-21G
 ****


