%nproc=1
%NoSave
%Mem=1900MB
#P OB98/GEN NMR

erre ene a

0 1
  C      -71.470    -168.515       8.028
  O      -70.185    -168.787       7.469
  P      -69.927    -169.411       6.020
  C      -70.379    -171.894       6.776
  O      -70.708    -170.805       5.919
  C      -71.105    -173.178       6.344
  O      -72.509    -173.074       6.736
  C      -71.075    -173.386       4.825
  O      -70.831    -174.742       4.436
  C      -72.386    -172.760       4.364
  O      -72.805    -173.202       3.082
  C      -73.317    -173.089       5.532
  N      -78.350    -172.363       5.018
  C      -77.579    -173.444       4.637
  N      -78.222    -174.464       4.024
  N      -76.285    -173.515       4.823
  C      -75.757    -172.400       5.375
  C      -76.415    -171.253       5.782
  C      -77.851    -171.206       5.615
  O      -78.587    -170.283       5.953
  N      -75.539    -170.337       6.306
  C      -74.356    -170.906       6.203
  N      -74.436    -172.170       5.647
  O      -68.509    -169.396       5.549
  O      -70.775    -168.452       5.034
  H      -73.535    -172.625       2.792
  H      -70.290    -168.432       4.185
  H      -79.346    -172.372       4.872
  H      -73.416    -170.465       6.522
  H      -73.760    -174.086       5.441
  H      -72.225    -171.672       4.297
  H      -79.187    -174.421       3.737
  H      -70.238    -172.843       4.372
  H      -77.623    -175.146       3.550
  H      -70.667    -174.031       6.880
  H      -70.710    -171.596       7.782
  H      -69.300    -172.044       6.816
  P      -69.530    -175.364       3.756
  C      -70.447    -175.800       1.399
  O      -69.558    -175.026       2.190
  O      -69.763    -176.948       3.789
  O      -68.239    -175.021       4.439
  H      -69.063    -177.378       4.325
  H      -70.182    -175.663       0.346
  H      -71.474    -175.452       1.554
  H      -70.369    -176.864       1.651
  H      -71.352    -168.101       9.008
  H      -72.032    -169.424       8.090
  H      -71.989    -167.817       7.405

 3  4  5  6  7  8  9  10  11  12  23  26  30  31 0
 6-311+G(2d,p)
 ****
 33  35  36  37  38 0
 6-311+G(2d,p)
 ****
 1  2  13  14  15  16  17  18  19  20  21  22  24  25 0
 3-21G
 ****
 27  28  29  32  34  39  40  41  42  43  44  45  46  47  48  49 0
 3-21G
 ****


