%nproc=1
%NoSave
%Mem=1900MB
#P OB98/GEN NMR

erre ene a

0 1
  C      185.065    -155.466      51.183
  O      185.274    -154.062      51.201
  P      184.580    -153.219      52.375
  C      185.187    -152.786      54.852
  O      185.293    -153.668      53.742
  C      184.870    -153.553      56.129
  O      183.487    -154.000      56.078
  C      185.747    -154.795      56.353
  O      186.145    -154.850      57.730
  C      184.795    -155.953      56.104
  O      185.197    -157.133      56.791
  C      183.483    -155.344      56.599
  N      178.769    -156.559      57.937
  C      179.621    -155.612      58.468
  N      179.168    -154.932      59.547
  N      180.809    -155.353      57.992
  C      181.118    -156.088      56.894
  C      180.357    -157.047      56.270
  C      179.067    -157.365      56.846
  O      178.303    -158.256      56.476
  N      181.002    -157.560      55.174
  C      182.151    -156.916      55.135
  N      182.289    -156.046      56.188
  O      183.123    -153.875      52.470
  O      184.495    -151.749      52.141
  H      184.516    -157.812      56.617
  H      182.442    -153.184      52.357
  H      177.871    -156.730      58.355
  H      182.922    -157.068      54.391
  H      183.477    -155.286      57.695
  H      184.762    -156.166      55.030
  H      178.250    -155.055      59.941
  H      186.633    -154.843      55.712
  H      179.769    -154.216      59.935
  H      184.951    -152.865      56.979
  H      184.390    -152.061      54.660
  H      186.133    -152.245      54.963
  P      187.632    -155.390      58.013
  C      189.958    -154.597      57.149
  O      188.564    -154.686      56.919
  O      187.568    -156.915      57.536
  O      188.066    -155.252      59.434
  H      188.250    -157.444      57.994
  H      190.270    -155.185      58.018
  H      190.224    -153.551      57.317
  H      190.488    -154.960      56.265
  H      185.584    -155.893      50.351
  H      184.018    -155.670      51.093
  H      185.435    -155.893      52.091

 3  4  5  6  7  8  9  10  11  12  23  26  30  31  33  0
 6-311+G(2d,p)
 ****
 35  36  37  38 0
 6-311+G(2d,p)
 ****
 1  2  13  14  15  16  17  18  19  20  21  22  24  25  27  28  29 0
 3-21G
 ****
 32  34  39  40  41  42  43  44  45  46  47  48  49 0
 3-21G
 ****


