%nproc=1
%NoSave
%Mem=1900MB
#P OB98/GEN NMR

erre ene a

0 1
  C       98.268      82.151     260.590
  O       99.533      82.487     260.056
  H       97.821      81.351     259.996
  H       98.402      81.795     261.614
  H       97.608      83.022     260.602
  P       99.554      83.310     258.679
  C      100.946      81.443     257.534
  O      100.857      82.818     257.877
  C      101.549      81.278     256.141
  O      100.629      81.849     255.167
  C      102.912      81.965     255.957
  O      103.736      81.126     255.142
  C      102.566      83.222     255.180
  O      103.660      83.714     254.415
  C      101.394      82.736     254.333
  N      100.116      85.443     250.224
  C      100.707      84.239     250.362
  N      100.964      83.561     251.499
  C      100.480      84.221     252.565
  C       99.848      85.452     252.581
  C       99.685      86.084     251.336
  N       99.145      87.342     251.191
  N       99.550      85.823     253.878
  C      100.017      84.846     254.630
  N      100.589      83.857     253.881
  O       99.948      84.784     259.167
  O       98.281      83.300     257.904
  H      104.461      83.719     254.975
  H       99.142      85.275     259.409
  H      101.027      83.759     249.440
  H       99.994      84.819     255.710
  H      101.718      82.182     253.443
  H      102.250      84.007     255.876
  H      103.427      82.185     256.899
  H      101.625      80.207     255.918
  H       99.941      81.008     257.538
  H       99.167      87.757     250.273
  H       98.922      87.876     252.017
  H      101.558      80.922     258.277
  P      104.574      79.974     255.878
  C      106.757      81.388     255.748
  O      106.119      80.143     255.489
  O      104.139      78.647     255.097
  O      104.298      79.867     257.342
  H      104.140      77.884     255.701
  H      107.778      81.338     255.433
  H      106.717      81.598     256.796
  H      106.255      82.165     255.209

 6  7  8  9  10  11  12  13  14  15  25  28  32  33  34  35 0
 6-311+G(2d,p)
 ****
 36  39  40 0
 6-311+G(2d,p)
 ****
 1  2  3  4  5  16  17  18  19  20  21  22  23  24 0
 3-21G
 ****
 26  27  29  30  31  37  38  41  42  43  44  45  46  47 0
 3-21G
 ****
 48 0
 3-21G
 ****


