%nproc=1
%NoSave
%Mem=1900MB
#P OB98/GEN NMR

erre ene a

0 1
  C     -154.151     123.746      43.401
  O     -154.404     124.662      42.356
  H     -154.944     123.842      44.148
  H     -153.194     123.970      43.878
  H     -154.148     122.719      43.025
  P     -153.461     124.636      41.060
  C     -151.690     125.963      42.382
  O     -152.461     125.884      41.189
  C     -151.594     127.415      42.842
  O     -150.790     127.508      44.041
  C     -150.934     128.342      41.827
  O     -151.822     128.642      40.768
  C     -150.568     129.517      42.721
  O     -151.710     130.353      42.968
  C     -150.132     128.796      44.019
  N     -148.679     128.647      44.127
  C     -147.960     129.815      44.356
  O     -148.484     130.921      44.464
  N     -146.597     129.672      44.413
  C     -145.904     128.521      44.176
  O     -144.687     128.484      44.021
  C     -146.719     127.307      44.013
  C     -148.049     127.426      43.980
  O     -154.163     124.523      39.748
  O     -152.499     123.380      41.320
  H     -152.816     122.619      40.797
  H     -152.409     129.768      43.321
  H     -146.062     130.522      44.533
  H     -146.206     126.361      43.887
  H     -148.670     126.549      43.831
  H     -150.485     129.348      44.900
  H     -149.797     130.151      42.279
  H     -150.012     127.887      41.445
  H     -152.605     127.764      43.087
  H     -150.685     125.579      42.173
  H     -152.156     125.340      43.152
  P     -151.724     127.881      39.364
  C     -150.185     129.559      38.186
  O     -151.482     128.977      38.219
  O     -152.838     126.928      39.083
  O     -150.319     127.112      39.430
  H     -150.462     126.167      39.230
  H     -150.134     130.271      37.389
  H     -149.454     128.793      38.027
  H     -149.991     130.050      39.117

 6  7  8  9  10  11  12  13  14  15  16  27  31  32  33  34  35 0
 6-311+G(2d,p)
 ****
 36  37 0
 6-311+G(2d,p)
 ****
 1  2  3  4  5  17  18  19  20  21  22  23  24  25 0
 3-21G
 ****
 26  28  29  30  38  39  40  41  42  43  44  45 0
 3-21G
 ****


