%nproc=1
%NoSave
%Mem=1900MB
#P OB98/GEN NMR

erre ene a

0 1
  C      -41.632       0.480     -43.635
  O      -42.184       1.490     -42.808
  P      -41.224       2.665     -42.288
  C      -40.290       1.264     -40.270
  O      -40.033       1.956     -41.479
  C      -39.044       1.272     -39.379
  O      -37.949       0.633     -40.093
  C      -38.567       2.671     -38.965
  O      -38.041       2.564     -37.634
  C      -37.452       2.954     -39.957
  O      -36.544       3.941     -39.494
  C      -36.841       1.556     -40.107
  N      -36.053       1.393     -41.330
  C      -34.818       2.031     -41.397
  O      -34.362       2.737     -40.500
  N      -34.119       1.851     -42.564
  C      -34.551       1.171     -43.665
  O      -33.890       1.058     -44.692
  C      -35.884       0.560     -43.554
  C      -36.556       0.688     -42.408
  O      -42.131       3.325     -41.149
  O      -40.781       3.599     -43.363
  H      -42.669       2.674     -40.666
  H      -37.045       4.762     -39.336
  H      -33.203       2.273     -42.621
  H      -36.268       0.024     -44.414
  H      -37.541       0.248     -42.302
  H      -36.218       1.323     -39.235
  H      -37.885       3.305     -40.901
  H      -39.370       3.412     -38.989
  H      -39.252       0.661     -38.491
  H      -40.561       0.229     -40.494
  H      -41.138       1.731     -39.759
  P      -38.174       3.840     -36.661
  C      -35.612       4.019     -36.149
  O      -36.771       4.611     -36.690
  O      -38.148       3.108     -35.232
  O      -39.401       4.665     -36.868
  H      -37.427       2.465     -35.150
  H      -34.733       4.527     -36.555
  H      -35.549       2.958     -36.403
  H      -35.614       4.135     -35.060
  H      -42.394      -0.224     -43.895
  H      -40.847      -0.022     -43.109
  H      -41.238       0.924     -44.525

 3  4  5  6  7  8  9  10  11  12  13  24  28  29  30  31  32 0
 6-311+G(2d,p)
 ****
 33  34 0
 6-311+G(2d,p)
 ****
 1  2  14  15  16  17  18  19  20  21  22  23  25  26  27 0
 3-21G
 ****
 35  36  37  38  39  40  41  42  43  44  45 0
 3-21G
 ****


