%nproc=1
%NoSave
%Mem=1900MB
#P OB98/GEN NMR

erre ene a

0 1
  C      -24.472      22.711     -90.699
  O      -25.544      21.797     -90.831
  H      -24.432      23.332     -91.596
  H      -23.524      22.176     -90.600
  H      -24.628      23.358     -89.832
  P      -25.793      20.738     -89.657
  C      -23.565      19.447     -89.849
  O      -24.971      19.421     -90.062
  C      -22.923      18.178     -90.402
  O      -21.489      18.250     -90.291
  C      -23.346      16.896     -89.685
  O      -24.600      16.445     -90.165
  C      -22.205      15.972     -90.074
  O      -22.387      15.524     -91.432
  C      -20.992      16.916     -89.992
  N      -18.819      14.171     -86.319
  C      -19.509      13.758     -87.441
  N      -19.670      12.426     -87.590
  N      -20.008      14.577     -88.330
  C      -19.832      15.881     -88.016
  C      -19.182      16.413     -86.926
  C      -18.577      15.495     -85.984
  O      -17.935      15.820     -84.989
  N      -19.288      17.780     -86.895
  C      -19.955      18.077     -87.993
  N      -20.318      16.957     -88.706
  O      -27.225      20.474     -89.302
  O      -24.964      21.319     -88.419
  H      -21.679      14.881     -91.619
  H      -25.522      21.888     -87.857
  H      -18.464      13.494     -85.665
  H      -20.198      19.079     -88.322
  H      -20.230      16.673     -90.741
  H      -22.147      15.081     -89.446
  H      -19.442      11.758     -86.870
  H      -23.343      17.025     -88.598
  H      -20.224      12.108     -88.376
  H      -23.160      18.122     -91.473
  H      -23.397      19.521     -88.770
  H      -23.121      20.323     -90.332
  P      -25.829      16.163     -89.168
  C      -25.356      13.657     -89.600
  O      -26.331      14.682     -89.523
  O      -26.896      17.202     -89.181
  O      -25.141      15.948     -87.745
  H      -24.975      16.797     -87.264
  H      -25.832      12.730     -89.843
  H      -24.858      13.566     -88.657
  H      -24.641      13.901     -90.358

 6  7  8  9  10  11  12  13  14  15  26  29  33  34 0
 6-311+G(2d,p)
 ****
 36  38  39  40  41 0
 6-311+G(2d,p)
 ****
 1  2  3  4  5  16  17  18  19  20  21  22  23  24  25 0
 3-21G
 ****
 27  28  30  31  32  35  37  42  43  44  45  46  47 0
 3-21G
 ****
 48  49 0
 3-21G
 ****


