%nproc=1
%NoSave
%Mem=1900MB
#P OB98/GEN NMR

erre ene a

0 1
  C     -322.296     329.511     367.150
  O     -321.116     329.413     366.372
  P     -319.772     330.060     366.972
  C     -318.227     328.195     366.031
  O     -318.574     329.573     366.024
  C     -317.798     327.753     364.631
  O     -318.853     327.988     363.676
  C     -316.585     328.497     364.089
  O     -315.364     327.975     364.587
  C     -316.712     328.212     362.601
  O     -316.208     326.897     362.304
  C     -318.235     328.257     362.392
  N     -321.488     330.579     359.287
  C     -321.440     329.257     359.685
  N     -322.351     328.427     359.135
  N     -320.576     328.791     360.548
  C     -319.720     329.739     361.017
  C     -319.674     331.079     360.699
  C     -320.624     331.573     359.730
  O     -320.688     332.722     359.298
  N     -318.672     331.719     361.376
  C     -318.111     330.774     362.108
  N     -318.687     329.544     361.890
  O     -319.535     329.237     368.322
  O     -319.848     331.531     367.214
  H     -315.240     326.930     362.447
  H     -318.911     329.717     368.902
  H     -322.170     330.886     358.615
  H     -317.288     330.927     362.794
  H     -318.574     327.486     361.695
  H     -316.147     328.915     361.983
  H     -323.002     328.708     358.414
  H     -316.670     329.577     364.260
  H     -322.295     327.441     359.359
  H     -317.606     326.670     364.664
  H     -319.090     327.606     366.352
  H     -317.414     328.029     366.747
  P     -314.017     328.476     363.859
  C     -312.781     328.895     366.106
  O     -312.839     328.165     364.898
  O     -314.157     330.063     363.897
  O     -313.836     327.953     362.470
  H     -313.654     330.473     363.164
  H     -312.097     328.387     366.792
  H     -313.770     328.953     366.572
  H     -312.408     329.905     365.921
  H     -323.105     329.041     366.631
  H     -322.529     330.542     367.316
  H     -322.145     329.024     368.091

 3  4  5  6  7  8  9  10  11  12  23  26  30  31 0
 6-311+G(2d,p)
 ****
 33  35  36  37  38 0
 6-311+G(2d,p)
 ****
 1  2  13  14  15  16  17  18  19  20  21  22  24  25 0
 3-21G
 ****
 27  28  29  32  34  39  40  41  42  43  44  45  46  47  48  49 0
 3-21G
 ****


