%nproc=1
%NoSave
%Mem=1900MB
#P OB98/GEN NMR

erre ene a

0 1
  C      -42.671    -653.107     985.786
  O      -42.438    -654.200     986.687
  P      -43.356    -654.292     987.993
  C      -44.919    -656.255     987.286
  O      -44.793    -654.864     987.573
  C      -46.000    -656.882     988.172
  O      -45.768    -656.589     989.560
  C      -47.389    -656.352     987.877
  O      -47.922    -656.955     986.712
  C      -48.147    -656.710     989.152
  O      -48.741    -658.018     989.058
  C      -47.041    -656.690     990.234
  N      -47.219    -655.612     991.194
  C      -48.023    -655.907     992.299
  O      -48.549    -657.023     992.409
  N      -48.227    -654.920     993.242
  C      -47.703    -653.749     993.082
  N      -47.948    -652.821     994.037
  C      -46.874    -653.389     991.905
  C      -46.676    -654.364     991.013
  O      -43.660    -652.753     988.337
  O      -42.712    -654.990     989.147
  H      -49.272    -658.127     989.872
  H      -43.746    -652.634     989.300
  H      -46.463    -652.394     991.806
  H      -46.079    -654.185     990.122
  H      -47.026    -657.634     990.786
  H      -48.966    -656.015     989.349
  H      -47.358    -655.255     987.768
  H      -45.977    -657.974     988.033
  H      -48.522    -653.102     994.822
  H      -43.966    -656.763     987.450
  H      -47.595    -651.869     993.996
  H      -45.153    -656.384     986.225
  P      -48.021    -656.062     985.380
  C      -47.399    -658.186     984.080
  O      -47.107    -656.806     984.299
  O      -47.101    -654.797     985.765
  O      -49.384    -655.650     984.941
  H      -47.161    -654.111     985.067
  H      -46.855    -658.512     983.189
  H      -48.474    -658.330     983.927
  H      -47.058    -658.777     984.939
  H      -41.990    -653.171     984.963
  H      -42.521    -652.182     986.302
  H      -43.676    -653.153     985.421

 3  4  5  6  7  8  9  10  11  12  13  21  23  27  28  29  30  32 0
 6-311+G(2d,p)
 ****
 34  35 0
 6-311+G(2d,p)
 ****
 1  2  14  15  16  17  18  19  20  22  24  25  26 0
 3-21G
 ****
 31  33  36  37  38  39  40  41  42  43  44  45  46 0
 3-21G
 ****


