%nproc=1
%NoSave
%Mem=1900MB
#P OB98/GEN NMR

erre ene a

0 1
  C       77.701      12.127     162.573
  O       77.491      13.232     161.718
  H       77.027      11.308     162.305
  H       78.733      11.784     162.458
  H       77.538      12.417     163.614
  P       76.031      13.897     161.739
  C       74.823      13.445     159.483
  O       75.118      12.977     160.792
  C       76.046      13.271     158.589
  O       76.680      12.000     158.854
  C       75.738      13.274     157.096
  O       75.594      14.586     156.581
  C       76.987      12.603     156.552
  O       78.077      13.543     156.538
  C       77.237      11.512     157.602
  N       77.924       7.018     155.256
  C       78.724       8.096     155.391
  N       78.465       9.257     156.027
  C       77.234       9.241     156.560
  C       76.302       8.219     156.497
  C       76.691       7.056     155.811
  N       75.871       5.959     155.658
  N       75.132       8.584     157.134
  C       75.370       9.794     157.600
  N       76.622      10.239     157.271
  O       76.214      15.234     160.877
  O       75.459      14.163     163.091
  H       78.278      13.750     157.471
  H       75.503      15.868     161.087
  H       79.702       8.016     154.924
  H       74.671      10.384     158.179
  H       78.305      11.326     157.768
  H       76.866      12.236     155.532
  H       74.865      12.652     156.862
  H       76.765      14.061     158.841
  H       74.559      14.506     159.531
  H       76.172       5.260     154.997
  H       74.904       6.040     155.938
  H       73.974      12.882     159.082
  P       74.580      14.789     155.355
  C       75.936      15.189     153.170
  O       75.346      14.243     154.058
  O       74.574      16.375     155.146
  O       73.208      14.241     155.580
  H       73.735      16.669     154.742
  H       76.406      14.672     152.359
  H       76.667      15.765     153.697
  H       75.178      15.839     152.787

 6  7  8  9  10  11  12  13  14  15  25  28  32  33  34  35 0
 6-311+G(2d,p)
 ****
 36  39  40 0
 6-311+G(2d,p)
 ****
 1  2  3  4  5  16  17  18  19  20  21  22  23  24 0
 3-21G
 ****
 26  27  29  30  31  37  38  41  42  43  44  45  46  47 0
 3-21G
 ****
 48 0
 3-21G
 ****


