%nproc=1
%NoSave
%Mem=1900MB
#P OB98/GEN NMR

erre ene a

0 1
  C     -254.901     353.004     211.627
  O     -253.527     353.326     211.602
  H     -255.362     353.493     212.490
  H     -255.038     351.922     211.722
  H     -255.389     353.361     210.717
  P     -252.638     352.623     210.465
  C     -251.235     351.259     212.179
  O     -252.128     351.228     211.071
  C     -251.200     349.885     212.842
  O     -252.438     349.655     213.552
  C     -251.074     348.727     211.865
  O     -249.745     348.538     211.405
  C     -251.558     347.570     212.723
  O     -250.506     347.037     213.540
  C     -252.654     348.227     213.583
  N     -253.992     347.865     213.128
  C     -254.405     346.570     213.441
  O     -253.710     345.773     214.063
  N     -255.642     346.214     212.981
  C     -256.464     346.982     212.211
  O     -257.538     346.578     211.782
  C     -255.967     348.331     211.895
  C     -254.770     348.707     212.356
  O     -251.320     353.527     210.425
  O     -253.292     352.525     209.127
  H     -251.321     354.078     209.620
  H     -249.860     346.643     212.922
  H     -255.960     345.283     213.201
  H     -256.593     348.967     211.284
  H     -254.379     349.693     212.129
  H     -252.554     347.922     214.633
  H     -251.932     346.758     212.108
  H     -251.765     348.859     211.025
  H     -250.377     349.870     213.569
  H     -251.578     351.999     212.907
  H     -250.240     351.548     211.822
  P     -249.516     347.547     210.160
  C     -248.182     345.877     211.697
  O     -249.260     346.097     210.799
  O     -248.078     348.033     209.661
  O     -250.603     347.625     209.145
  H     -247.555     348.419     210.385
  H     -248.181     344.854     212.009
  H     -248.295     346.511     212.552
  H     -247.258     346.101     211.206

 6  7  8  9  10  11  12  13  14  15  16  27  31  32  33  34  35 0
 6-311+G(2d,p)
 ****
 36  37 0
 6-311+G(2d,p)
 ****
 1  2  3  4  5  17  18  19  20  21  22  23  24  25 0
 3-21G
 ****
 26  28  29  30  38  39  40  41  42  43  44  45 0
 3-21G
 ****


