%nproc=1
%NoSave
%Mem=1900MB
#P OB98/GEN NMR

erre ene a

0 1
  C      296.245    -303.423     -51.559
  O      295.702    -304.261     -52.554
  P      294.418    -305.163     -52.229
  C      294.901    -307.665     -51.918
  O      294.894    -306.379     -51.306
  C      296.281    -307.978     -52.490
  O      297.310    -307.644     -51.538
  C      296.497    -309.445     -52.832
  O      295.838    -309.787     -54.041
  C      298.022    -309.522     -52.899
  O      298.497    -309.050     -54.173
  C      298.423    -308.539     -51.784
  N      302.136    -311.149     -49.432
  C      301.991    -310.751     -50.714
  N      300.942    -310.092     -51.275
  C      299.989    -309.866     -50.373
  C      299.979    -310.253     -49.031
  C      301.127    -310.910     -48.559
  N      301.315    -311.262     -47.239
  N      298.784    -309.873     -48.427
  C      298.093    -309.284     -49.382
  N      298.799    -309.205     -50.549
  O      293.586    -305.545     -53.411
  O      293.568    -304.254     -51.216
  H      298.110    -308.169     -54.315
  H      292.687    -304.064     -51.608
  H      302.817    -310.977     -51.379
  H      297.092    -308.889     -49.268
  H      299.272    -307.910     -52.083
  H      298.401    -310.531     -52.757
  H      296.133    -310.083     -52.008
  H      296.433    -307.353     -53.379
  H      294.150    -307.670     -52.720
  H      302.239    -311.591     -46.983
  H      300.732    -310.827     -46.530
  H      294.621    -308.426     -51.176
  P      295.862    -311.306     -54.561
  C      296.999    -311.954     -56.757
  O      297.183    -311.481     -55.446
  O      294.595    -311.786     -55.189
  O      296.193    -312.146     -53.237
  H      295.751    -313.021     -53.284
  H      296.828    -313.049     -56.736
  H      297.904    -311.751     -57.343
  H      296.144    -311.476     -57.236
  H      297.091    -302.902     -51.955
  H      296.550    -304.015     -50.722
  H      295.505    -302.716     -51.245

 3  4  5  6  7  8  9  10  11  12  22  25  29  30  31  32 0
 6-311+G(2d,p)
 ****
 33  36  37 0
 6-311+G(2d,p)
 ****
 1  2  13  14  15  16  17  18  19  20  21  23  24  26 0
 3-21G
 ****
 27  28  34  35  38  39  40  41  42  43  44  45  46  47  48 0
 3-21G
 ****


