%nproc=1
%NoSave
%Mem=1900MB
#P OB98/GEN NMR

erre ene a

0 1
  C     -558.350     920.937     -50.062
  O     -557.790     919.666     -49.791
  H     -557.728     921.444     -50.805
  H     -558.359     921.531     -49.146
  H     -559.369     920.843     -50.454
  P     -558.726     918.597     -49.047
  C     -558.038     919.687     -46.785
  O     -559.101     919.228     -47.615
  C     -558.575     920.125     -45.426
  O     -559.528     919.132     -44.959
  C     -557.493     920.275     -44.349
  O     -557.833     921.383     -43.496
  C     -557.641     918.997     -43.537
  O     -557.144     919.132     -42.208
  C     -559.160     918.795     -43.605
  N     -559.099     915.502     -39.819
  C     -558.836     916.860     -39.830
  N     -558.434     917.420     -38.666
  N     -558.956     917.607     -40.898
  C     -559.378     916.925     -41.989
  C     -559.669     915.587     -42.105
  C     -559.522     914.765     -40.922
  O     -559.720     913.556     -40.849
  N     -560.016     915.270     -43.402
  C     -559.911     916.409     -44.061
  N     -559.526     917.444     -43.254
  O     -557.690     917.428     -48.682
  O     -559.879     918.089     -49.847
  H     -557.513     919.944     -41.822
  H     -557.713     916.737     -49.374
  H     -558.981     914.976     -38.975
  H     -560.080     916.529     -45.124
  H     -559.705     919.465     -42.926
  H     -557.120     918.176     -44.023
  H     -558.353     916.920     -37.802
  H     -556.480     920.409     -44.738
  H     -558.273     918.423     -38.658
  H     -559.130     921.064     -45.551
  H     -557.542     920.533     -47.271
  H     -557.304     918.875     -46.669
  P     -557.066     922.769     -43.731
  C     -555.458     922.026     -41.828
  O     -555.604     922.673     -43.084
  O     -557.834     923.782     -42.762
  O     -557.103     923.248     -45.156
  H     -557.867     924.674     -43.164
  H     -554.429     922.045     -41.534
  H     -555.787     921.011     -41.909
  H     -556.048     922.535     -41.094

 6  7  8  9  10  11  12  13  14  15  26  29  33  34 0
 6-311+G(2d,p)
 ****
 36  38  39  40  41 0
 6-311+G(2d,p)
 ****
 1  2  3  4  5  16  17  18  19  20  21  22  23  24  25 0
 3-21G
 ****
 27  28  30  31  32  35  37  42  43  44  45  46  47 0
 3-21G
 ****
 48  49 0
 3-21G
 ****


