%nproc=1
%NoSave
%Mem=1900MB
#P OB98/GEN NMR

erre ene a

0 1
  C     -103.185     -99.304    -255.453
  O     -102.269     -98.242    -255.276
  P     -102.737     -96.883    -254.567
  C     -102.585     -97.798    -252.170
  O     -103.438     -97.257    -253.173
  C     -103.024     -97.324    -250.785
  O     -102.406     -96.061    -250.455
  C     -104.518     -97.078    -250.660
  O     -105.256     -98.287    -250.618
  C     -104.571     -96.247    -249.383
  O     -104.495     -97.091    -248.224
  C     -103.287     -95.397    -249.514
  N     -103.568     -94.032    -249.923
  C     -104.016     -93.168    -248.914
  O     -104.232     -93.592    -247.782
  N     -104.218     -91.846    -249.227
  C     -104.106     -91.449    -250.457
  N     -104.254     -90.119    -250.695
  C     -103.793     -92.363    -251.577
  C     -103.515     -93.621    -251.233
  O     -103.519     -95.950    -255.430
  O     -101.364     -96.200    -254.097
  H     -101.356     -95.270    -254.399
  H     -103.798     -97.749    -248.403
  H     -103.774     -91.996    -252.590
  H     -103.254     -94.359    -251.989
  H     -102.747     -95.380    -248.562
  H     -105.491     -95.666    -249.302
  H     -104.864     -96.469    -251.505
  H     -102.697     -98.073    -250.051
  H     -104.451     -89.521    -249.903
  H     -101.559     -97.466    -252.364
  H     -103.877     -89.667    -251.525
  H     -102.610     -98.891    -252.228
  P     -106.717     -98.271    -251.285
  C     -106.362     -99.042    -253.729
  O     -106.531     -97.954    -252.842
  O     -107.372     -96.929    -250.698
  O     -107.555     -99.465    -250.971
  H     -108.323     -97.072    -250.538
  H     -106.598     -98.707    -254.744
  H     -107.021     -99.875    -253.472
  H     -105.319     -99.377    -253.703
  H     -102.695    -100.121    -255.941
  H     -104.006     -98.971    -256.054
  H     -103.548     -99.624    -254.499

 3  4  5  6  7  8  9  10  11  12  13  24  27  28  29  30  32 0
 6-311+G(2d,p)
 ****
 34  35 0
 6-311+G(2d,p)
 ****
 1  2  14  15  16  17  18  19  20  21  22  23  25  26 0
 3-21G
 ****
 31  33  36  37  38  39  40  41  42  43  44  45  46 0
 3-21G
 ****


