%nproc=1
%NoSave
%Mem=1900MB
#P OB98/GEN NMR

erre ene a

0 1
  C      -14.980      -6.962     -83.682
  O      -15.651      -6.269     -84.720
  P      -16.180      -7.134     -85.967
  C      -13.732      -7.205     -86.832
  O      -14.913      -7.940     -86.530
  C      -12.926      -7.879     -87.945
  O      -12.491      -9.181     -87.485
  C      -13.703      -8.071     -89.250
  O      -12.796      -7.865     -90.333
  C      -14.101      -9.535     -89.212
  O      -14.331     -10.054     -90.520
  C      -12.902     -10.152     -88.471
  N      -13.236     -11.431     -87.853
  C      -13.460     -12.509     -88.716
  O      -13.447     -12.336     -89.935
  N      -13.739     -13.741     -88.177
  C      -13.892     -13.861     -86.895
  N      -14.167     -15.102     -86.411
  C      -13.789     -12.722     -85.961
  C      -13.440     -11.555     -86.500
  O      -16.439      -6.023     -87.088
  O      -17.399      -7.950     -85.685
  H      -14.632     -10.984     -90.430
  H      -17.184      -6.280     -87.667
  H      -13.962     -12.870     -84.904
  H      -13.318     -10.671     -85.888
  H      -12.061     -10.306     -89.159
  H      -15.019      -9.656     -88.624
  H      -14.552      -7.388     -89.344
  H      -12.025      -7.280     -88.124
  H      -14.248     -15.863     -87.072
  H      -13.105      -7.157     -85.938
  H      -14.303     -15.292     -85.426
  H      -14.003      -6.183     -87.114
  P      -13.396      -7.316     -91.715
  C      -12.883      -9.582     -92.808
  O      -13.880      -8.624     -92.507
  O      -12.059      -6.932     -92.515
  O      -14.344      -6.165     -91.666
  H      -12.293      -6.518     -93.365
  H      -13.365     -10.471     -93.218
  H      -12.335      -9.863     -91.904
  H      -12.193      -9.179     -93.556
  H      -14.685      -6.268     -82.923
  H      -14.112      -7.446     -84.079
  H      -15.636      -7.695     -83.260

 3  4  5  6  7  8  9  10  11  12  13  21  23  27  28  29  30  32 0
 6-311+G(2d,p)
 ****
 34  35 0
 6-311+G(2d,p)
 ****
 1  2  14  15  16  17  18  19  20  22  24  25  26 0
 3-21G
 ****
 31  33  36  37  38  39  40  41  42  43  44  45  46 0
 3-21G
 ****


