%nproc=1
%NoSave
%Mem=1900MB
#P OB98/GEN NMR

erre ene a

0 1
  C       61.792     -65.127    -123.815
  O       62.543     -65.286    -122.633
  H       62.092     -65.905    -124.524
  H       61.996     -64.154    -124.270
  H       60.724     -65.231    -123.613
  P       62.339     -64.246    -121.427
  C       59.811     -64.683    -121.338
  O       61.041     -64.771    -120.631
  C       58.652     -64.378    -120.389
  O       57.434     -64.183    -121.158
  C       58.380     -65.493    -119.368
  O       58.226     -64.927    -118.065
  C       57.055     -66.082    -119.827
  O       56.338     -66.727    -118.779
  C       56.384     -64.845    -120.432
  N       55.254     -65.195    -121.282
  C       54.057     -65.493    -120.626
  O       53.995     -65.445    -119.397
  N       52.976     -65.889    -121.369
  C       53.093     -66.024    -122.652
  N       51.992     -66.449    -123.327
  C       54.347     -65.748    -123.384
  C       55.377     -65.337    -122.644
  O       62.290     -62.814    -121.841
  O       63.529     -64.564    -120.406
  H       56.033     -66.043    -118.145
  H       63.686     -63.771    -119.842
  H       54.395     -65.881    -124.454
  H       56.338     -65.111    -123.092
  H       56.032     -64.165    -119.645
  H       57.244     -66.825    -120.614
  H       59.164     -66.248    -119.337
  H       58.855     -63.423    -119.889
  H       51.156     -66.634    -122.786
  H       59.639     -65.631    -121.860
  H       51.971     -66.614    -124.321
  H       59.892     -63.876    -122.073
  P       59.485     -65.065    -117.079
  C       61.170     -63.535    -118.324
  O       60.344     -63.714    -117.183
  O       60.399     -66.163    -117.800
  O       59.114     -65.481    -115.695
  H       60.390     -66.991    -117.284
  H       61.677     -62.595    -118.253
  H       60.566     -63.549    -119.207
  H       61.889     -64.326    -118.371

 6  7  8  9  10  11  12  13  14  15  16  26  30  31  32  33  35 0
 6-311+G(2d,p)
 ****
 37  38 0
 6-311+G(2d,p)
 ****
 1  2  3  4  5  17  18  19  20  21  22  23  24  25 0
 3-21G
 ****
 27  28  29  34  36  39  40  41  42  43  44  45  46 0
 3-21G
 ****


