%nproc=1
%NoSave
%Mem=1900MB
#P OB98/GEN NMR

erre ene a

0 1
  C     -319.336      52.569    -549.892
  O     -320.377      53.267    -550.542
  H     -318.655      52.169    -550.648
  H     -319.742      51.736    -549.315
  H     -318.770      53.235    -549.234
  P     -321.401      54.124    -549.658
  C     -323.364      52.487    -549.995
  O     -322.476      53.095    -549.066
  C     -324.808      52.822    -549.636
  O     -325.679      52.545    -550.752
  C     -325.360      52.013    -548.469
  O     -324.854      52.489    -547.235
  C     -326.857      52.212    -548.667
  O     -327.275      53.484    -548.154
  C     -326.966      52.173    -550.209
  N     -327.398      50.874    -550.726
  C     -328.768      50.700    -550.902
  O     -329.594      51.559    -550.611
  N     -329.153      49.488    -551.410
  C     -328.330      48.428    -551.672
  O     -328.736      47.344    -552.076
  C     -326.899      48.660    -551.433
  C     -326.503      49.849    -550.979
  O     -321.985      55.329    -550.322
  O     -320.540      54.526    -548.367
  H     -327.991      53.799    -548.738
  H     -320.223      55.443    -548.456
  H     -330.139      49.337    -551.533
  H     -326.215      47.843    -551.622
  H     -325.453      50.037    -550.794
  H     -327.684      52.931    -550.557
  H     -327.454      51.455    -548.158
  H     -325.128      50.947    -548.600
  H     -324.865      53.899    -549.422
  H     -323.223      51.399    -549.958
  H     -323.122      52.842    -551.001
  P     -324.602      51.490    -546.012
  C     -326.506      52.333    -544.521
  O     -326.016      51.245    -545.287
  O     -323.492      51.876    -545.090
  O     -324.303      50.083    -546.713
  H     -323.349      49.878    -546.652
  H     -327.446      52.067    -544.084
  H     -326.636      53.186    -545.155
  H     -325.806      52.567    -543.746

 6  7  8  9  10  11  12  13  14  15  16  26  31  32  33  34  35 0
 6-311+G(2d,p)
 ****
 36  37 0
 6-311+G(2d,p)
 ****
 1  2  3  4  5  17  18  19  20  21  22  23  24  25 0
 3-21G
 ****
 27  28  29  30  38  39  40  41  42  43  44  45 0
 3-21G
 ****


