%nproc=1
%NoSave
%Mem=1900MB
#P OB98/GEN NMR

erre ene a

0 1
  C      120.441     -63.734     -28.806
  O      119.568     -62.623     -28.834
  H      120.903     -63.818     -27.820
  H      119.861     -64.640     -29.002
  H      121.214     -63.637     -29.573
  P      120.244     -61.171     -28.742
  C      119.696     -61.103     -26.203
  O      120.692     -60.995     -27.209
  C      120.179     -60.458     -24.903
  O      121.176     -61.321     -24.296
  C      120.818     -59.081     -25.105
  O      120.440     -58.232     -24.019
  C      122.308     -59.369     -25.043
  O      123.062     -58.229     -24.649
  C      122.351     -60.525     -24.048
  N      127.220     -61.038     -22.602
  C      126.242     -60.200     -22.198
  N      124.965     -60.133     -22.631
  C      124.725     -61.088     -23.547
  C      125.621     -62.012     -24.058
  C      126.930     -61.959     -23.552
  N      127.943     -62.784     -23.984
  N      125.008     -62.805     -25.010
  C      123.766     -62.365     -25.069
  N      123.550     -61.327     -24.207
  O      118.979     -60.196     -28.879
  O      121.291     -60.877     -29.762
  H      124.013     -58.433     -24.770
  H      118.729     -60.119     -29.819
  H      126.522     -59.484     -21.430
  H      122.994     -62.753     -25.719
  H      122.325     -60.182     -23.005
  H      122.663     -59.690     -26.029
  H      120.528     -58.614     -26.048
  H      119.337     -60.406     -24.203
  H      119.481     -62.162     -26.027
  H      128.866     -62.640     -23.608
  H      127.761     -63.435     -24.734
  H      118.782     -60.604     -26.544
  P      119.537     -56.956     -24.379
  C      121.414     -55.172     -24.287
  O      120.465     -55.856     -25.090
  O      119.215     -56.314     -22.949
  O      118.283     -57.300     -25.116
  H      118.258     -56.145     -22.867
  H      121.956     -54.475     -24.891
  H      122.095     -55.878     -23.860
  H      120.907     -54.647     -23.505

 6  7  8  9  10  11  12  13  14  15  25  28  32  33  34  35 0
 6-311+G(2d,p)
 ****
 36  39  40 0
 6-311+G(2d,p)
 ****
 1  2  3  4  5  16  17  18  19  20  21  22  23  24 0
 3-21G
 ****
 26  27  29  30  31  37  38  41  42  43  44  45  46  47 0
 3-21G
 ****
 48 0
 3-21G
 ****


