%nproc=1
%NoSave
%Mem=1900MB
#P OB98/GEN NMR

erre ene a

0 1
  C      849.684    -215.812     529.112
  O      850.864    -215.016     528.964
  P      851.415    -214.782     527.469
  C      850.880    -213.012     525.610
  O      850.676    -213.465     526.951
  C      849.985    -211.805     525.317
  O      848.598    -212.128     525.602
  C      850.297    -210.583     526.152
  O      851.479    -209.934     525.696
  C      849.022    -209.770     525.968
  O      849.036    -209.078     524.712
  C      847.941    -210.885     525.938
  N      847.200    -210.995     527.185
  C      845.808    -211.002     527.066
  O      845.219    -210.919     525.986
  N      845.109    -211.115     528.239
  C      845.646    -211.178     529.491
  O      844.957    -211.284     530.505
  C      847.108    -211.101     529.565
  C      847.817    -211.010     528.426
  O      850.701    -215.984     526.687
  O      852.909    -214.772     527.398
  H      849.804    -216.180     527.022
  H      848.154    -208.660     524.618
  H      844.094    -211.147     528.166
  H      847.577    -211.118     530.548
  H      848.900    -210.956     528.456
  H      847.228    -210.692     525.128
  H      848.884    -209.021     526.750
  H      850.414    -210.863     527.212
  H      850.073    -211.571     524.243
  H      850.650    -213.819     524.900
  H      851.942    -212.753     525.489
  P      852.722    -209.894     526.722
  C      854.075    -211.718     528.010
  O      852.963    -211.397     527.201
  O      852.054    -209.178     527.992
  O      853.930    -209.188     526.174
  H      851.170    -209.526     528.198
  H      853.884    -212.672     528.512
  H      854.259    -210.955     528.768
  H      854.967    -211.827     527.383
  H      849.431    -215.886     530.149
  H      849.862    -216.791     528.718
  H      848.876    -215.355     528.579

 3  4  5  6  7  8  9  10  11  12  13  24  28  29  30  31  32 0
 6-311+G(2d,p)
 ****
 33  34 0
 6-311+G(2d,p)
 ****
 1  2  14  15  16  17  18  19  20  21  22  23  25  26  27 0
 3-21G
 ****
 35  36  37  38  39  40  41  42  43  44  45 0
 3-21G
 ****


