%nproc=1
%NoSave
%Mem=1900MB
#P OB98/GEN NMR

erre ene a

0 1
  C      137.258      13.167    -299.916
  O      137.879      14.429    -299.771
  H      136.582      13.205    -300.774
  H      136.675      12.934    -299.022
  H      137.998      12.382    -300.092
  P      139.114      14.573    -298.762
  C      137.756      14.567    -296.568
  O      138.673      13.862    -297.392
  C      138.497      15.355    -295.485
  O      137.537      16.219    -294.801
  C      139.162      14.471    -294.410
  O      140.342      15.155    -293.967
  C      138.095      14.467    -293.333
  O      138.587      13.990    -292.108
  C      137.658      15.934    -293.392
  N      136.412      16.200    -292.686
  C      136.483      16.370    -291.307
  O      137.529      16.330    -290.664
  N      135.287      16.581    -290.672
  C      134.061      16.632    -291.268
  O      133.024      16.846    -290.654
  C      134.047      16.415    -292.724
  C      135.206      16.214    -293.356
  O      139.668      15.949    -298.607
  O      140.205      13.561    -299.353
  H      140.850      14.054    -299.894
  H      139.416      14.455    -291.865
  H      135.318      16.707    -289.672
  H      133.089      16.427    -293.223
  H      135.234      16.049    -294.429
  H      138.442      16.588    -292.997
  H      137.272      13.807    -293.618
  H      139.432      13.479    -294.781
  H      139.230      16.014    -295.965
  H      137.084      13.839    -296.103
  H      137.166      15.251    -297.189
  P      141.829      14.704    -294.376
  C      142.444      13.379    -292.250
  O      142.187      13.320    -293.646
  O      142.857      15.769    -294.160
  O      141.744      14.311    -295.924
  H      142.574      14.569    -296.368
  H      142.668      12.398    -291.887
  H      141.581      13.758    -291.744
  H      143.277      14.026    -292.068

 6  7  8  9  10  11  12  13  14  15  16  27  31  32  33  34  35 0
 6-311+G(2d,p)
 ****
 36  37 0
 6-311+G(2d,p)
 ****
 1  2  3  4  5  17  18  19  20  21  22  23  24  25 0
 3-21G
 ****
 26  28  29  30  38  39  40  41  42  43  44  45 0
 3-21G
 ****


