%nproc=1
%NoSave
%Mem=1900MB
#P OB98/GEN NMR

erre ene a

0 1
  C     2181.269    -759.652     551.437
  O     2182.575    -760.084     551.041
  P     2182.952    -759.864     549.499
  C     2185.369    -758.900     549.487
  O     2183.975    -758.635     549.419
  C     2185.964    -758.291     550.755
  O     2185.411    -758.851     551.960
  C     2187.483    -758.495     550.869
  O     2188.154    -757.552     550.056
  C     2187.702    -758.275     552.362
  O     2187.835    -756.877     552.668
  C     2186.437    -758.847     552.975
  N     2186.935    -761.547     557.246
  C     2186.986    -760.182     557.052
  N     2187.160    -759.425     558.160
  N     2186.862    -759.609     555.885
  C     2186.688    -760.483     554.878
  C     2186.597    -761.865     554.931
  C     2186.737    -762.482     556.243
  O     2186.690    -763.686     556.471
  N     2186.354    -762.406     553.698
  C     2186.423    -761.378     552.886
  N     2186.560    -760.185     553.541
  O     2181.595    -759.304     548.863
  O     2183.414    -761.122     548.819
  H     2187.820    -756.759     553.635
  H     2181.219    -759.990     548.261
  H     2187.050    -761.937     558.170
  H     2186.353    -761.458     551.806
  H     2186.067    -758.218     553.794
  H     2188.636    -758.753     552.692
  H     2187.264    -759.787     559.081
  H     2187.744    -759.526     550.593
  H     2187.180    -758.416     558.042
  H     2185.740    -757.218     550.750
  H     2185.874    -758.498     548.613
  H     2185.517    -759.995     549.472
  P     2188.353    -757.915     548.505
  C     2187.465    -755.653     547.579
  O     2187.298    -757.062     547.658
  O     2187.808    -759.412     548.408
  O     2189.765    -757.838     548.026
  H     2188.426    -759.962     547.875
  H     2187.045    -755.310     546.641
  H     2188.520    -755.376     547.644
  H     2186.900    -755.189     548.413
  H     2181.130    -759.847     552.480
  H     2180.531    -760.183     550.873
  H     2181.170    -758.602     551.254

 3  4  5  6  7  8  9  10  11  12  23  26  30  31 0
 6-311+G(2d,p)
 ****
 33  35  36  37  38 0
 6-311+G(2d,p)
 ****
 1  2  13  14  15  16  17  18  19  20  21  22  24  25 0
 3-21G
 ****
 27  28  29  32  34  39  40  41  42  43  44  45  46  47  48  49 0
 3-21G
 ****


