%nproc=1
%NoSave
%Mem=1900MB
#P OB98/GEN NMR

erre ene a

0 1
  C      -27.755      22.331      28.863
  O      -27.002      22.400      27.669
  H      -28.596      21.649      28.711
  H      -28.146      23.319      29.123
  H      -27.134      21.953      29.679
  P      -25.777      23.438      27.659
  C      -27.337      25.061      26.339
  O      -26.495      24.863      27.465
  C      -27.778      26.519      26.277
  O      -28.420      26.910      27.510
  C      -26.633      27.508      26.084
  O      -26.185      27.579      24.741
  C      -27.307      28.794      26.524
  O      -28.190      29.257      25.485
  C      -28.106      28.308      27.755
  N      -27.372      28.457      29.012
  C      -27.076      29.765      29.415
  O      -27.416      30.724      28.726
  N      -26.369      29.954      30.579
  C      -25.999      28.932      31.284
  N      -25.289      29.178      32.419
  C      -26.304      27.540      30.906
  C      -26.983      27.377      29.774
  O      -25.090      23.198      26.233
  O      -24.839      23.357      28.816
  H      -28.699      28.484      25.181
  H      -24.395      23.881      26.077
  H      -25.964      26.719      31.521
  H      -27.241      26.381      29.431
  H      -29.058      28.844      27.841
  H      -26.601      29.600      26.729
  H      -25.801      27.299      26.764
  H      -28.524      26.613      25.477
  H      -25.042      30.137      32.620
  H      -28.208      24.406      26.440
  H      -24.808      28.448      32.930
  H      -26.802      24.804      25.420
  P      -24.792      28.326      24.460
  C      -26.107      30.436      23.713
  O      -25.080      29.902      24.536
  O      -24.555      28.071      22.899
  O      -23.640      27.846      25.288
  H      -23.613      27.905      22.707
  H      -26.180      31.491      23.873
  H      -27.039      29.972      23.960
  H      -25.876      30.247      22.686

 6  7  8  9  10  11  12  13  14  15  16  26  30  31  32  33  35 0
 6-311+G(2d,p)
 ****
 37  38 0
 6-311+G(2d,p)
 ****
 1  2  3  4  5  17  18  19  20  21  22  23  24  25 0
 3-21G
 ****
 27  28  29  34  36  39  40  41  42  43  44  45  46 0
 3-21G
 ****


