%nproc=1
%NoSave
%Mem=1900MB
#P OB98/GEN NMR

erre ene a

0 1
  C      352.713    -155.677      97.430
  O      354.018    -156.212      97.291
  P      354.237    -157.729      96.823
  C      354.897    -159.341      98.722
  O      353.836    -158.628      98.093
  C      355.753    -158.405      99.581
  O      354.921    -157.467     100.290
  C      356.582    -159.119     100.643
  O      357.721    -159.735     100.063
  C      356.899    -157.969     101.591
  O      358.020    -157.200     101.131
  C      355.597    -157.131     101.525
  N      354.744    -157.338     102.685
  C      354.841    -156.373     103.702
  O      355.636    -155.441     103.592
  N      354.066    -156.519     104.825
  C      353.284    -157.552     104.941
  N      352.554    -157.657     106.084
  C      353.178    -158.609     103.910
  C      353.927    -158.438     102.822
  O      355.565    -158.027      96.218
  O      353.008    -157.975      95.819
  H      358.815    -157.740     101.318
  H      353.152    -157.519      94.949
  H      352.522    -159.454     104.056
  H      353.912    -159.170     102.017
  H      355.835    -156.057     101.461
  H      357.137    -158.320     102.600
  H      355.958    -159.862     101.163
  H      356.417    -157.838      98.907
  H      352.677    -156.927     106.778
  H      355.520    -159.792      97.945
  H      351.948    -158.434     106.292
  H      354.478    -160.152      99.338
  P      358.593    -160.762     100.927
  C      361.068    -160.300     101.463
  O      359.720    -159.919     101.701
  O      359.092    -161.961     100.181
  O      357.602    -161.201     102.108
  H      357.663    -162.169     102.228
  H      361.722    -159.471     101.758
  H      361.227    -160.519     100.404
  H      361.308    -161.176     102.067
  H      352.778    -154.658      97.749
  H      352.170    -156.245      98.157
  H      352.206    -155.725      96.489

 3  4  5  6  7  8  9  10  11  12  13  23  27  28  29  30  32 0
 6-311+G(2d,p)
 ****
 34  35 0
 6-311+G(2d,p)
 ****
 1  2  14  15  16  17  18  19  20  21  22  24  25  26 0
 3-21G
 ****
 31  33  36  37  38  39  40  41  42  43  44  45  46 0
 3-21G
 ****


