%nproc=1
%NoSave
%Mem=1900MB
#P OB98/GEN NMR

erre ene a

0 1
  C       -4.089       7.366     318.345
  O       -3.267       8.304     317.673
  P       -3.996       9.397     316.747
  C       -2.688      11.501     317.550
  O       -3.924      10.796     317.532
  C       -2.812      12.758     318.409
  O       -3.087      12.396     319.779
  C       -1.557      13.622     318.458
  O       -1.399      14.364     317.261
  C       -1.848      14.465     319.697
  O       -2.764      15.522     319.373
  C       -2.533      13.443     320.626
  N       -1.211      13.154     325.567
  C       -2.156      13.875     324.923
  N       -2.434      13.916     323.604
  C       -1.617      13.093     322.924
  C       -0.592      12.314     323.434
  C       -0.405      12.356     324.823
  N        0.571      11.621     325.473
  N        0.045      11.621     322.427
  C       -0.587      11.967     321.329
  N       -1.609      12.847     321.575
  O       -5.538       8.994     316.861
  O       -3.530       9.436     315.329
  H       -3.013      15.956     320.210
  H       -6.011       9.173     316.024
  H       -2.775      14.509     325.560
  H       -0.353      11.610     320.334
  H       -3.358      13.880     321.198
  H       -0.950      14.923     320.128
  H       -0.672      13.001     318.629
  H       -3.662      13.346     318.031
  H       -2.420      11.795     316.529
  H        0.737      11.824     326.449
  H        1.257      11.141     324.910
  H       -1.906      10.841     317.935
  P       -0.453      13.732     316.126
  C       -2.227      14.219     314.326
  O       -1.490      13.217     315.011
  O        0.022      12.377     316.821
  O        0.628      14.636     315.640
  H       -0.722      11.878     317.201
  H       -2.844      13.739     313.569
  H       -1.545      14.924     313.840
  H       -2.873      14.750     315.028
  H       -3.477       6.703     318.921
  H       -4.647       6.802     317.627
  H       -4.763       7.884     318.995

 3  4  5  6  7  8  9  10  11  12  22  25  29  30  31  32 0
 6-311+G(2d,p)
 ****
 33  36  37 0
 6-311+G(2d,p)
 ****
 1  2  13  14  15  16  17  18  19  20  21  23  24  26 0
 3-21G
 ****
 27  28  34  35  38  39  40  41  42  43  44  45  46  47  48 0
 3-21G
 ****


