%nproc=1
%NoSave
%Mem=1900MB
#P OB98/GEN NMR

erre ene a

0 1
  C     -161.377     175.712      62.984
  O     -161.090     177.092      62.850
  H     -162.192     175.457      62.301
  H     -161.694     175.493      64.008
  H     -160.500     175.113      62.726
  P     -159.794     177.636      63.634
  C     -158.329     177.020      61.538
  O     -158.724     177.997      62.490
  C     -157.572     177.675      60.381
  O     -158.482     178.554      59.669
  C     -156.365     178.508      60.820
  O     -155.325     178.354      59.851
  C     -156.890     179.936      60.794
  O     -155.839     180.889      60.642
  C     -157.899     179.872      59.633
  N     -158.922     180.912      59.728
  C     -158.626     182.141      59.126
  O     -157.544     182.320      58.570
  N     -159.551     183.155      59.207
  C     -160.647     182.984      59.888
  N     -161.510     184.036      59.944
  C     -160.973     181.721      60.582
  C     -160.084     180.735      60.454
  O     -159.221     176.290      64.286
  O     -160.084     178.729      64.611
  H     -156.237     181.791      60.676
  H     -159.254     175.525      63.690
  H     -161.890     181.627      61.148
  H     -160.245     179.773      60.926
  H     -157.382     179.981      58.669
  H     -157.412     180.164      61.733
  H     -155.993     178.240      61.808
  H     -157.276     176.889      59.674
  H     -161.237     184.892      59.468
  H     -159.207     176.492      61.149
  H     -162.362     184.032      60.488
  H     -157.690     176.290      62.047
  P     -153.933     177.692      60.296
  C     -154.523     175.256      59.687
  O     -153.679     176.367      59.422
  O     -153.731     177.534      61.768
  O     -152.843     178.714      59.687
  H     -152.115     178.799      60.334
  H     -154.255     174.443      59.045
  H     -155.541     175.531      59.508
  H     -154.409     174.957      60.708

 6  7  8  9  10  11  12  13  14  15  16  26  30  31  32  33  35 0
 6-311+G(2d,p)
 ****
 37  38 0
 6-311+G(2d,p)
 ****
 1  2  3  4  5  17  18  19  20  21  22  23  24  25 0
 3-21G
 ****
 27  28  29  34  36  39  40  41  42  43  44  45  46 0
 3-21G
 ****


