%nproc=1
%NoSave
%Mem=1900MB
#P OB98/GEN NMR

erre ene a

0 1
  C      163.735     143.848    -254.821
  O      162.916     144.127    -253.703
  H      163.119     143.790    -255.723
  H      164.455     144.663    -254.942
  H      164.282     142.912    -254.681
  P      161.989     142.936    -253.159
  C      163.941     141.448    -252.307
  O      162.810     142.235    -251.965
  C      163.768     140.018    -251.800
  O      164.726     139.165    -252.490
  C      163.991     139.849    -250.289
  O      163.041     138.900    -249.794
  C      165.380     139.243    -250.209
  O      165.583     138.489    -249.018
  C      165.416     138.403    -251.481
  N      168.563     134.691    -252.951
  C      167.217     134.757    -252.881
  N      166.452     135.811    -252.528
  C      167.212     136.893    -252.296
  C      168.593     136.982    -252.334
  C      169.284     135.802    -252.668
  N      170.656     135.705    -252.676
  N      169.004     138.252    -251.978
  C      167.894     138.906    -251.701
  N      166.786     138.128    -251.878
  O      162.074     141.864    -254.348
  O      160.583     143.307    -252.839
  H      166.487     138.122    -249.026
  H      161.382     142.054    -255.008
  H      166.686     133.842    -253.130
  H      167.836     139.926    -251.346
  H      164.903     137.440    -251.366
  H      166.131     140.043    -250.242
  H      163.908     140.785    -249.724
  H      162.767     139.668    -252.084
  H      164.833     141.882    -251.841
  H      171.060     134.795    -252.818
  H      171.204     136.493    -252.355
  H      164.072     141.455    -253.394
  P      161.513     139.376    -249.682
  C      160.317     137.982    -251.526
  O      160.566     138.166    -250.137
  O      161.369     140.433    -250.876
  O      161.164     139.988    -248.363
  H      160.737     141.133    -250.633
  H      159.672     137.140    -251.664
  H      161.243     137.810    -252.035
  H      159.849     138.858    -251.924

 6  7  8  9  10  11  12  13  14  15  25  28  32  33  34  35 0
 6-311+G(2d,p)
 ****
 36  39  40 0
 6-311+G(2d,p)
 ****
 1  2  3  4  5  16  17  18  19  20  21  22  23  24 0
 3-21G
 ****
 26  27  29  30  31  37  38  41  42  43  44  45  46  47 0
 3-21G
 ****
 48 0
 3-21G
 ****


