%nproc=1
%NoSave
%Mem=1900MB
#P OB98/GEN NMR

erre ene a

0 1
  C     -361.648    -416.010     116.103
  O     -360.512    -415.320     115.625
  H     -362.541    -415.444     115.825
  H     -361.608    -416.084     117.192
  H     -361.712    -417.010     115.661
  P     -359.068    -416.002     115.772
  C     -358.139    -414.032     117.163
  O     -358.404    -415.428     117.121
  C     -357.101    -413.708     118.244
  O     -357.722    -413.884     119.547
  C     -355.857    -414.602     118.187
  O     -354.710    -413.821     118.521
  C     -356.115    -415.631     119.276
  O     -354.906    -416.178     119.800
  C     -356.913    -414.821     120.293
  N     -358.583    -415.634     124.998
  C     -357.797    -414.613     124.490
  N     -357.378    -413.676     125.378
  N     -357.450    -414.521     123.233
  C     -357.958    -415.510     122.460
  C     -358.750    -416.574     122.842
  C     -359.103    -416.675     124.244
  O     -359.785    -417.568     124.750
  N     -359.048    -417.382     121.771
  C     -358.440    -416.807     120.747
  N     -357.758    -415.673     121.116
  O     -358.193    -415.902     114.561
  O     -359.385    -417.523     116.140
  H     -354.432    -415.448     120.249
  H     -359.228    -418.110     115.380
  H     -358.810    -415.662     125.976
  H     -358.463    -417.165     119.725
  H     -356.268    -414.257     120.977
  H     -356.716    -416.452     118.868
  H     -357.629    -413.677     126.353
  H     -355.718    -415.057     117.207
  H     -356.825    -412.903     125.021
  H     -356.832    -412.647     118.158
  H     -359.080    -413.511     117.384
  H     -357.778    -413.702     116.181
  P     -353.622    -413.506     117.386
  C     -351.975    -415.190     118.423
  O     -352.640    -414.771     117.239
  O     -352.935    -412.188     117.499
  O     -354.491    -413.581     116.033
  H     -354.143    -412.926     115.394
  H     -351.354    -416.033     118.204
  H     -352.700    -415.463     119.161
  H     -351.371    -414.389     118.795

 6  7  8  9  10  11  12  13  14  15  26  29  33  34 0
 6-311+G(2d,p)
 ****
 36  38  39  40  41 0
 6-311+G(2d,p)
 ****
 1  2  3  4  5  16  17  18  19  20  21  22  23  24  25 0
 3-21G
 ****
 27  28  30  31  32  35  37  42  43  44  45  46  47 0
 3-21G
 ****
 48  49 0
 3-21G
 ****


