%nproc=1
%NoSave
%Mem=1900MB
#P OB98/GEN NMR

erre ene a

0 1
  C       95.227     810.723    -262.776
  O       95.989     811.660    -263.503
  H       95.908     810.004    -262.315
  H       94.555     810.178    -263.445
  H       94.654     811.218    -261.992
  P       95.240     812.816    -264.327
  C       96.898     814.475    -263.282
  O       95.524     814.173    -263.504
  C       97.098     815.978    -263.071
  O       97.034     816.663    -264.352
  C       96.045     816.622    -262.153
  O       96.690     817.457    -261.190
  C       95.222     817.477    -263.104
  O       94.566     818.560    -262.449
  C       96.281     817.867    -264.135
  N       95.691     818.387    -265.359
  C       95.769     819.768    -265.550
  O       96.325     820.479    -264.706
  N       95.176     820.323    -266.651
  C       94.514     819.565    -267.476
  N       93.924     820.183    -268.535
  C       94.383     818.106    -267.304
  C       94.995     817.588    -266.237
  O       93.803     812.543    -264.615
  O       96.122     813.015    -265.649
  H       94.117     819.110    -263.129
  H       95.561     813.430    -266.345
  H       93.820     817.518    -268.011
  H       94.956     816.525    -266.023
  H       96.963     818.630    -263.729
  H       94.452     816.858    -263.577
  H       95.430     815.891    -261.635
  H       98.113     816.142    -262.688
  H       94.036     821.187    -268.610
  H       97.478     814.133    -264.143
  H       93.368     819.700    -269.224
  H       97.230     813.943    -262.384
  P       96.568     816.990    -259.657
  C       99.111     816.482    -259.617
  O       97.803     816.017    -259.337
  O       95.293     816.021    -259.666
  O       96.387     818.129    -258.701
  H       94.556     816.451    -259.195
  H       99.822     815.727    -259.352
  H       99.304     817.368    -259.049
  H       99.196     816.701    -260.661

 6  7  8  9  10  11  12  13  14  15  16  26  30  31  32  33  35 0
 6-311+G(2d,p)
 ****
 37  38 0
 6-311+G(2d,p)
 ****
 1  2  3  4  5  17  18  19  20  21  22  23  24  25 0
 3-21G
 ****
 27  28  29  34  36  39  40  41  42  43  44  45  46 0
 3-21G
 ****


