%nproc=1
%NoSave
%Mem=1900MB
#P OB98/GEN NMR

erre ene a

0 1
  C      -62.226     -94.206     -48.394
  O      -61.350     -93.558     -49.294
  H      -62.491     -95.197     -48.773
  H      -61.720     -94.321     -47.433
  H      -63.131     -93.609     -48.248
  P      -61.921     -93.266     -50.765
  C      -60.418     -95.178     -51.670
  O      -61.723     -94.623     -51.597
  C      -59.580     -94.415     -52.691
  O      -58.238     -94.944     -52.727
  C      -60.092     -94.497     -54.125
  O      -61.165     -93.597     -54.355
  C      -58.846     -94.086     -54.894
  O      -58.702     -92.654     -54.857
  C      -57.730     -94.749     -54.073
  N      -54.098     -97.197     -56.716
  C      -54.193     -95.922     -56.283
  N      -55.182     -95.349     -55.567
  C      -56.140     -96.245     -55.282
  C      -56.173     -97.584     -55.634
  C      -55.092     -98.061     -56.393
  N      -55.039     -99.354     -56.888
  N      -57.331     -98.182     -55.174
  C      -57.991     -97.215     -54.572
  N      -57.310     -96.029     -54.605
  O      -60.821     -92.275     -51.382
  O      -63.288     -92.672     -50.810
  H      -59.522     -92.280     -55.231
  H      -61.128     -91.356     -51.282
  H      -53.367     -95.272     -56.552
  H      -58.960     -97.326     -54.106
  H      -56.842     -94.112     -53.993
  H      -58.874     -94.382     -55.947
  H      -60.359     -95.524     -54.399
  H      -59.515     -93.371     -52.361
  H      -60.485     -96.228     -51.970
  H      -54.511     -99.435     -57.752
  H      -55.917     -99.857     -56.841
  H      -59.957     -95.119     -50.680
  P      -62.395     -94.115     -55.245
  C      -61.199     -93.142     -57.321
  O      -61.839     -94.271     -56.743
  O      -63.343     -92.828     -55.323
  O      -63.126     -95.292     -54.699
  H      -64.235     -93.055     -54.995
  H      -60.880     -93.382     -58.314
  H      -60.350     -92.871     -56.729
  H      -61.885     -92.322     -57.356

 6  7  8  9  10  11  12  13  14  15  25  28  32  33  34  35 0
 6-311+G(2d,p)
 ****
 36  39  40 0
 6-311+G(2d,p)
 ****
 1  2  3  4  5  16  17  18  19  20  21  22  23  24 0
 3-21G
 ****
 26  27  29  30  31  37  38  41  42  43  44  45  46  47  48 0
 3-21G
 ****


