%nproc=1
%NoSave
%Mem=1900MB
#P OB98/GEN NMR

erre ene a

0 1
  C       49.511     -84.054      16.854
  O       50.573     -83.283      16.328
  P       51.943     -83.987      15.890
  C       53.404     -83.141      17.827
  O       52.804     -84.275      17.211
  C       54.228     -83.565      19.040
  O       53.379     -84.127      20.068
  C       55.255     -84.646      18.744
  O       56.358     -84.146      18.013
  C       55.581     -85.131      20.151
  O       56.520     -84.253      20.789
  C       54.202     -85.037      20.838
  N       53.564     -86.335      20.986
  C       53.710     -86.953      22.232
  O       54.412     -86.441      23.104
  N       53.059     -88.142      22.453
  C       52.429     -88.722      21.480
  N       51.755     -89.866      21.774
  C       52.392     -88.180      20.106
  C       52.955     -86.985      19.939
  O       52.689     -83.302      14.794
  O       51.494     -85.457      15.435
  H       51.881     -85.646      14.558
  H       57.319     -84.245      20.227
  H       51.910     -88.736      19.316
  H       52.955     -86.499      18.968
  H       54.304     -84.578      21.829
  H       56.021     -86.134      20.155
  H       54.782     -85.459      18.179
  H       54.718     -82.672      19.449
  H       51.788     -90.197      22.730
  H       52.613     -82.454      18.141
  H       50.989     -90.210      21.199
  H       54.034     -82.625      17.095
  P       56.941     -85.082      16.847
  C       58.713     -86.248      18.332
  O       57.550     -86.389      17.541
  O       58.233     -84.281      16.343
  O       55.991     -85.341      15.725
  H       58.329     -84.388      15.378
  H       58.794     -87.114      18.993
  H       58.676     -85.341      18.941
  H       59.594     -86.218      17.683
  H       48.686     -83.413      17.087
  H       49.838     -84.552      17.743
  H       49.205     -84.780      16.130

 3  4  5  6  7  8  9  10  11  12  13  24  27  28  29  30  32 0
 6-311+G(2d,p)
 ****
 34  35 0
 6-311+G(2d,p)
 ****
 1  2  14  15  16  17  18  19  20  21  22  23  25  26 0
 3-21G
 ****
 31  33  36  37  38  39  40  41  42  43  44  45  46 0
 3-21G
 ****


