%nproc=1
%NoSave
%Mem=1900MB
#P OB98/GEN NMR

erre ene a

0 1
  C      745.086     -28.276    -577.979
  O      745.291     -28.667    -579.319
  H      745.418     -29.088    -577.322
  H      744.023     -28.092    -577.798
  H      745.661     -27.378    -577.749
  P      745.023     -27.569    -580.457
  C      747.568     -27.306    -580.915
  O      746.350     -26.668    -580.549
  C      748.639     -26.267    -581.228
  O      748.311     -25.612    -582.478
  C      748.783     -25.189    -580.152
  O      750.170     -24.857    -580.008
  C      748.043     -23.997    -580.742
  O      748.500     -22.748    -580.218
  C      748.292     -24.189    -582.246
  N      747.268     -23.522    -583.044
  C      747.378     -22.132    -583.163
  O      748.294     -21.532    -582.600
  N      746.412     -21.447    -583.863
  C      745.381     -22.086    -584.325
  N      744.444     -21.344    -584.980
  C      745.193     -23.540    -584.165
  C      746.164     -24.187    -583.522
  O      743.965     -26.580    -579.780
  O      744.550     -28.108    -581.767
  H      749.447     -22.641    -580.471
  H      743.359     -26.201    -580.446
  H      744.303     -24.019    -584.544
  H      746.109     -25.261    -583.350
  H      749.274     -23.792    -582.525
  H      746.973     -24.081    -580.518
  H      748.378     -25.487    -579.183
  H      749.593     -26.787    -581.381
  H      744.606     -20.350    -585.059
  H      747.393     -27.915    -581.808
  H      743.589     -21.731    -585.342
  H      747.892     -27.966    -580.095
  P      750.584     -24.077    -578.674
  C      752.158     -25.911    -577.702
  O      750.952     -25.168    -577.547
  O      749.201     -23.460    -578.154
  O      751.607     -23.020    -578.892
  H      749.191     -22.494    -578.294
  H      752.266     -26.591    -576.883
  H      752.991     -25.239    -577.720
  H      752.123     -26.461    -578.619

 6  7  8  9  10  11  12  13  14  15  16  26  30  31  32  33  35 0
 6-311+G(2d,p)
 ****
 37  38 0
 6-311+G(2d,p)
 ****
 1  2  3  4  5  17  18  19  20  21  22  23  24  25 0
 3-21G
 ****
 27  28  29  34  36  39  40  41  42  43  44  45  46 0
 3-21G
 ****


