%nproc=1
%NoSave
%Mem=1900MB
#P OB98/GEN NMR

erre ene a

0 1
  C     1265.520     593.902     750.347
  O     1265.370     592.506     750.529
  P     1265.719     591.805     751.911
  C     1263.470     592.202     753.227
  O     1264.844     592.490     753.057
  C     1263.299     591.223     754.412
  O     1263.830     591.811     755.614
  C     1261.830     590.877     754.644
  O     1261.490     589.665     753.979
  C     1261.763     590.766     756.168
  O     1262.231     589.486     756.605
  C     1262.750     591.881     756.603
  N     1262.269     593.290     756.644
  C     1261.268     593.630     757.545
  O     1260.770     592.851     758.342
  N     1260.836     594.935     757.469
  C     1261.338     595.897     756.635
  O     1260.781     596.966     756.423
  C     1262.566     595.544     755.916
  C     1262.944     594.269     755.928
  O     1267.195     592.348     752.226
  O     1265.640     590.316     751.938
  H     1263.036     589.291     756.119
  H     1267.855     591.674     751.972
  H     1260.017     595.158     758.030
  H     1263.070     596.316     755.347
  H     1263.822     593.967     755.369
  H     1263.192     591.653     757.589
  H     1260.725     590.862     756.515
  H     1261.175     591.709     754.330
  H     1263.868     590.317     754.199
  H     1263.076     591.743     752.308
  H     1262.897     593.120     753.409
  P     1260.054     589.538     753.277
  C     1260.839     589.338     750.838
  O     1260.238     590.196     751.811
  O     1258.905     590.051     754.065
  O     1259.934     587.959     752.998
  H     1259.402     587.550     753.710
  H     1260.733     589.840     749.863
  H     1260.349     588.377     750.816
  H     1261.908     589.239     751.077
  H     1265.232     594.165     749.351
  H     1266.542     594.175     750.506
  H     1264.899     594.422     751.047

 3  4  5  6  7  8  9  10  11  12  13  23  28  29  30  31  32 0
 6-311+G(2d,p)
 ****
 33  34 0
 6-311+G(2d,p)
 ****
 1  2  14  15  16  17  18  19  20  21  22  24  25  26  27 0
 3-21G
 ****
 35  36  37  38  39  40  41  42  43  44  45 0
 3-21G
 ****


