%nproc=1
%NoSave
%Mem=1900MB
#P OB98/GEN NMR

erre ene a

0 1
  C     -226.342     208.399    -181.864
  O     -225.156     209.131    -181.628
  H     -227.189     209.088    -181.847
  H     -226.483     207.648    -181.081
  H     -226.300     207.913    -182.842
  P     -223.784     208.299    -181.633
  C     -222.733     206.488    -180.092
  O     -223.885     207.253    -180.421
  C     -222.764     206.126    -178.611
  O     -223.863     205.222    -178.351
  C     -221.517     205.396    -178.129
  O     -220.429     206.274    -177.905
  C     -222.036     204.737    -176.860
  O     -222.005     205.643    -175.750
  C     -223.483     204.394    -177.229
  N     -224.710     199.797    -175.381
  C     -224.726     201.027    -174.823
  N     -224.395     202.207    -175.388
  C     -224.046     202.034    -176.674
  C     -223.986     200.844    -177.379
  C     -224.342     199.681    -176.678
  N     -224.303     198.425    -177.237
  N     -223.542     201.065    -178.667
  C     -223.347     202.365    -178.743
  N     -223.641     202.993    -177.565
  O     -222.710     209.370    -181.123
  O     -223.404     207.713    -182.950
  H     -221.078     205.671    -175.445
  H     -222.223     209.732    -181.888
  H     -225.036     201.067    -173.783
  H     -222.989     202.893    -179.618
  H     -224.182     204.613    -176.412
  H     -221.431     203.870    -176.598
  H     -221.239     204.612    -178.844
  H     -222.930     207.041    -178.028
  H     -221.834     207.079    -180.300
  H     -222.718     205.586    -180.710
  H     -224.507     197.629    -176.656
  H     -223.920     198.315    -178.167
  P     -218.988     205.826    -178.445
  C     -217.675     203.574    -178.389
  O     -218.650     204.410    -177.779
  O     -217.978     206.837    -177.725
  O     -218.843     205.860    -179.930
  H     -217.238     207.051    -178.326
  H     -217.572     202.673    -177.821
  H     -216.736     204.086    -178.420
  H     -217.984     203.334    -179.385

 6  7  8  9  10  11  12  13  14  15  25  28  32  33  34  35 0
 6-311+G(2d,p)
 ****
 36  37  40 0
 6-311+G(2d,p)
 ****
 1  2  3  4  5  16  17  18  19  20  21  22  23  24 0
 3-21G
 ****
 26  27  29  30  31  38  39 41  42  43  44  45  46  47  48 0
 3-21G
 ****


