%nproc=1
%NoSave
%Mem=1900MB
#P OB98/GEN NMR

erre ene a

0 1
  C      301.228    -181.892      94.528
  O      302.513    -182.045      93.912
  P      302.862    -183.254      92.915
  C      301.427    -182.770      90.826
  O      302.731    -182.748      91.400
  C      301.469    -183.159      89.346
  O      300.151    -183.507      88.872
  C      301.958    -182.063      88.409
  O      303.366    -181.913      88.485
  C      301.437    -182.570      87.066
  O      302.327    -183.554      86.507
  C      300.092    -183.209      87.464
  N      298.954    -182.361      87.145
  C      298.353    -182.560      85.899
  O      298.820    -183.380      85.104
  N      297.248    -181.807      85.569
  C      296.831    -180.890      86.381
  N      295.727    -180.182      86.007
  C      297.487    -180.584      87.665
  C      298.531    -181.351      87.981
  O      302.111    -184.513      93.203
  O      304.440    -183.493      93.091
  H      301.833    -184.000      85.797
  H      304.637    -184.436      92.939
  H      297.125    -179.788      88.299
  H      299.070    -181.200      88.911
  H      299.962    -184.173      86.959
  H      301.336    -181.773      86.323
  H      301.460    -181.117      88.656
  H      302.103    -184.053      89.253
  H      295.300    -180.421      85.124
  H      300.995    -181.768      90.924
  H      295.322    -179.445      86.567
  H      300.809    -183.477      91.389
  P      303.994    -180.583      89.119
  C      303.273    -180.577      91.582
  O      304.304    -180.881      90.659
  O      303.234    -179.322      88.851
  O      305.461    -180.513      88.474
  H      305.719    -179.576      88.376
  H      303.422    -181.169      92.488
  H      302.287    -180.806      91.163
  H      303.317    -179.514      91.840
  H      301.231    -181.019      95.147
  H      301.014    -182.753      95.126
  H      300.479    -181.789      93.771

 3  4  5  6  7  8  9  10  11  12  13  23  27  28  29  30  32 0
 6-311+G(2d,p)
 ****
 34  35 0
 6-311+G(2d,p)
 ****
 1  2  14  15  16  17  18  19  20  21  22  24  25  26 0
 3-21G
 ****
 31  33  36  37  38  39  40  41  42  43  44  45  46 0
 3-21G
 ****


