%nproc=1
%NoSave
%Mem=1900MB
#P OB98/GEN NMR

erre ene a

0 1
  C     -159.082    -303.083     172.157
  O     -157.844    -303.063     172.837
  H     -159.902    -303.177     172.872
  H     -159.199    -302.145     171.608
  H     -159.109    -303.913     171.447
  P     -157.493    -304.342     173.740
  C     -155.920    -305.399     171.971
  O     -157.111    -305.536     172.734
  C     -155.885    -306.449     170.864
  O     -157.056    -306.267     170.026
  C     -154.641    -306.391     169.961
  O     -153.953    -307.645     169.989
  C     -155.196    -306.177     168.561
  O     -154.515    -306.936     167.564
  C     -156.655    -306.598     168.691
  N     -158.329    -306.741     163.879
  C     -157.840    -307.711     164.685
  N     -157.513    -307.632     165.991
  C     -157.759    -306.398     166.468
  C     -158.276    -305.316     165.775
  C     -158.550    -305.516     164.412
  N     -158.994    -304.514     163.578
  N     -158.378    -304.212     166.600
  C     -157.891    -304.607     167.757
  N     -157.487    -305.916     167.719
  O     -158.920    -304.782     174.320
  O     -156.506    -304.095     174.831
  H     -153.587    -306.632     167.567
  H     -158.849    -304.934     175.282
  H     -157.686    -308.678     164.215
  H     -157.765    -303.986     168.635
  H     -156.785    -307.681     168.557
  H     -155.111    -305.114     168.304
  H     -153.954    -305.585     170.241
  H     -155.972    -307.439     171.327
  H     -155.049    -305.540     172.621
  H     -159.052    -304.716     162.592
  H     -159.054    -303.575     163.942
  H     -155.880    -304.388     171.551
  P     -153.051    -307.945     171.288
  C     -154.897    -309.529     172.214
  O     -154.042    -308.420     172.458
  O     -152.603    -306.481     171.758
  O     -151.882    -308.832     171.025
  H     -151.757    -306.529     172.241
  H     -155.491    -309.720     173.083
  H     -154.306    -310.392     171.989
  H     -155.538    -309.310     171.386

 6  7  8  9  10  11  12  13  14  15  25  28  32  33  34  35 0
 6-311+G(2d,p)
 ****
 36  39  40 0
 6-311+G(2d,p)
 ****
 1  2  3  4  5  16  17  18  19  20  21  22  23  24 0
 3-21G
 ****
 26  27  29  30  31  37  38  41  42  43  44  45  46  47  48 0
 3-21G
 ****


