%nproc=1
%NoSave
%Mem=1900MB
#P OB98/GEN NMR

erre ene a

0 1
  C     -123.764    -103.666     -40.193
  O     -123.126    -104.923     -40.129
  H     -123.686    -103.185     -39.215
  H     -124.822    -103.800     -40.435
  H     -123.295    -103.021     -40.938
  P     -122.810    -105.698     -41.493
  C     -120.613    -104.518     -42.155
  O     -121.995    -104.687     -42.433
  C     -119.758    -104.990     -43.337
  O     -119.992    -104.112     -44.467
  C     -118.262    -104.913     -43.015
  O     -117.505    -105.871     -43.749
  C     -117.889    -103.518     -43.491
  O     -116.498    -103.377     -43.778
  C     -118.790    -103.365     -44.714
  N     -119.490     -99.841     -48.330
  C     -118.958    -101.111     -48.440
  N     -118.564    -101.492     -49.678
  N     -118.805    -101.922     -47.426
  C     -119.175    -101.383     -46.241
  C     -119.693    -100.131     -46.002
  C     -119.890     -99.254     -47.137
  O     -120.335     -98.112     -47.092
  N     -119.939     -99.937     -44.666
  C     -119.568    -101.066     -44.097
  N     -119.120    -101.985     -45.014
  O     -124.235    -105.774     -42.222
  O     -122.199    -107.058     -41.337
  H     -116.010    -103.918     -43.128
  H     -124.246    -106.502     -42.869
  H     -119.613     -99.268     -49.146
  H     -119.617    -101.274     -43.036
  H     -118.309    -103.789     -45.605
  H     -118.127    -102.809     -42.695
  H     -118.483    -100.831     -50.435
  H     -118.054    -105.032     -41.955
  H     -117.901    -102.270     -49.721
  H     -120.067    -105.994     -43.647
  H     -120.393    -105.107     -41.262
  H     -120.398    -103.475     -41.916
  P     -116.551    -106.873     -42.942
  C     -118.052    -109.051     -43.008
  O     -117.423    -108.028     -42.269
  O     -116.048    -106.002     -41.701
  O     -115.410    -107.418     -43.743
  H     -115.084    -105.862     -41.752
  H     -118.575    -109.703     -42.340
  H     -117.314    -109.608     -43.545
  H     -118.745    -108.618     -43.699

 6  7  8  9  10  11  12  13  14  15  26  29  33  34 0
 6-311+G(2d,p)
 ****
 36  38  39  40  41 0
 6-311+G(2d,p)
 ****
 1  2  3  4  5  16  17  18  19  20  21  22  23  24  25 0
 3-21G
 ****
 27  28  30  31  32  35  37  42  43  44  45  46  47 0
 3-21G
 ****
 48  49 0
 3-21G
 ****


