%nproc=1
%NoSave
%Mem=1900MB
#P OB98/GEN NMR

erre ene a

0 1
  C      309.307    -899.346     144.743
  O      308.072    -898.666     144.486
  P      307.538    -897.626     145.587
  C      307.118    -895.346     144.400
  O      308.008    -896.146     145.171
  C      307.711    -895.076     143.008
  O      307.910    -896.286     142.258
  C      306.824    -894.196     142.132
  O      307.004    -892.826     142.431
  C      307.398    -894.516     140.748
  O      308.595    -893.766     140.530
  C      307.706    -896.016     140.861
  N      305.367    -897.736     136.634
  C      306.377    -896.846     136.822
  N      306.928    -896.426     137.975
  C      306.357    -897.036     139.016
  C      305.317    -897.956     139.004
  C      304.813    -898.306     137.741
  N      303.799    -899.226     137.559
  N      304.983    -898.356     140.280
  C      305.807    -897.676     141.059
  N      306.660    -896.866     140.354
  O      308.455    -897.966     146.862
  O      306.083    -897.776     145.900
  H      308.326    -892.846     140.323
  H      307.934    -897.836     147.677
  H      306.786    -896.416     135.906
  H      305.841    -897.756     142.139
  H      308.633    -896.276     140.327
  H      306.689    -894.236     139.946
  H      305.767    -894.506     142.198
  H      308.687    -894.596     143.147
  H      306.929    -894.396     144.919
  H      303.503    -899.446     136.635
  H      303.402    -899.656     138.386
  H      306.154    -895.856     144.325
  P      305.745    -892.046     143.085
  C      306.630    -891.306     145.410
  O      305.899    -892.246     144.662
  O      304.510    -892.986     142.689
  O      305.571    -890.646     142.616
  H      303.691    -892.456     142.584
  H      306.370    -891.416     146.475
  H      306.381    -890.286     145.096
  H      307.698    -891.466     145.283
  H      309.531    -900.000     143.926
  H      309.219    -899.917     145.644
  H      310.093    -898.628     144.851

 3  4  5  6  7  8  9  10  11  12  22  25  29  30  31  32 0
 6-311+G(2d,p)
 ****
 33  36  37 0
 6-311+G(2d,p)
 ****
 1  2  13  14  15  16  17  18  19  20  21  23  24  26 0
 3-21G
 ****
 27  28  34  35  38  39  40  41  42  43  44  45  46  47  48 0
 3-21G
 ****


