%nproc=1
%NoSave
%Mem=1900MB
#P OB98/GEN NMR

erre ene a

0 1
  C      -37.424    -615.039     402.495
  O      -37.436    -614.437     403.772
  P      -37.672    -612.856     403.945
  C      -35.722    -612.811     405.617
  O      -36.253    -612.271     404.419
  C      -34.188    -612.762     405.586
  O      -33.729    -613.623     404.520
  C      -33.581    -611.389     405.282
  O      -33.445    -610.543     406.430
  C      -32.197    -611.795     404.801
  O      -31.356    -612.123     405.930
  C      -32.500    -613.058     403.988
  N      -30.080    -612.583     399.509
  C      -29.638    -612.904     400.741
  N      -30.345    -612.985     401.897
  C      -31.642    -612.756     401.659
  C      -32.242    -612.428     400.461
  C      -31.402    -612.338     399.334
  N      -31.860    -612.045     398.062
  N      -33.602    -612.234     400.624
  C      -33.815    -612.465     401.905
  N      -32.660    -612.786     402.575
  O      -38.844    -612.490     404.797
  O      -37.798    -612.315     402.449
  H      -31.827    -612.810     406.439
  H      -38.204    -611.428     402.447
  H      -28.571    -613.093     400.828
  H      -34.777    -612.407     402.393
  H      -31.720    -613.829     404.097
  H      -31.693    -610.996     404.245
  H      -34.114    -610.879     404.476
  H      -33.814    -613.158     406.538
  H      -36.045    -613.861     405.699
  H      -31.204    -612.131     397.309
  H      -32.861    -612.024     397.917
  H      -36.117    -612.268     406.485
  P      -33.609    -608.958     406.188
  C      -33.028    -608.458     408.683
  O      -32.723    -608.259     407.322
  O      -35.027    -608.490     406.087
  O      -32.754    -608.718     404.840
  H      -31.803    -608.848     404.938
  H      -32.210    -608.039     409.300
  H      -33.114    -609.519     408.917
  H      -33.949    -607.945     408.943
  H      -37.253    -616.090     402.598
  H      -36.643    -614.607     401.904
  H      -38.366    -614.876     402.015

 3  4  5  6  7  8  9  10  11  12  22  25  29  30  31  32 0
 6-311+G(2d,p)
 ****
 33  36  37 0
 6-311+G(2d,p)
 ****
 1  2  13  14  15  16  17  18  19  20  21  23  24  26 0
 3-21G
 ****
 27  28  34  35  38  39  40  41  42  43  44  45  46  47  48 0
 3-21G
 ****


