%nproc=1
%NoSave
%Mem=1900MB
#P OB98/GEN NMR

erre ene a

0 1
  C     -394.593    -480.167     308.731
  O     -394.885    -479.430     307.548
  P     -394.675    -480.145     306.129
  C     -395.935    -478.235     304.792
  O     -394.809    -479.071     304.953
  C     -395.969    -477.712     303.344
  O     -394.969    -476.686     303.157
  C     -395.707    -478.798     302.302
  O     -396.893    -479.483     301.945
  C     -395.104    -477.996     301.168
  O     -396.138    -477.307     300.435
  C     -394.225    -476.987     301.944
  N     -392.856    -477.398     302.311
  C     -391.767    -476.961     301.562
  O     -391.856    -476.230     300.575
  N     -390.528    -477.375     301.984
  C     -390.253    -478.031     303.147
  O     -389.124    -478.324     303.506
  C     -391.422    -478.338     303.986
  C     -392.642    -478.035     303.530
  O     -395.975    -481.056     305.961
  O     -393.414    -480.945     306.027
  H     -396.715    -477.988     300.046
  H     -395.733    -482.000     305.959
  H     -389.737    -477.127     301.409
  H     -391.246    -478.821     304.939
  H     -393.512    -478.259     304.147
  H     -394.126    -476.049     301.378
  H     -394.604    -478.641     300.449
  H     -394.949    -479.487     302.667
  H     -396.957    -477.253     303.172
  H     -395.896    -477.399     305.494
  H     -396.842    -478.803     305.013
  P     -397.278    -480.842     302.701
  C     -399.848    -480.867     302.642
  O     -398.660    -481.326     302.031
  O     -397.273    -480.786     304.197
  O     -396.227    -481.908     302.133
  H     -395.458    -481.995     302.744
  H     -400.694    -481.129     302.006
  H     -399.816    -479.778     302.758
  H     -399.978    -481.343     303.615
  H     -394.783    -479.555     309.588
  H     -393.564    -480.461     308.723
  H     -395.213    -481.038     308.770

 3  4  5  6  7  8  9  10  11  12  13  23  28  29  30  31  32 0
 6-311+G(2d,p)
 ****
 33  34 0
 6-311+G(2d,p)
 ****
 1  2  14  15  16  17  18  19  20  21  22  24  25  26  27 0
 3-21G
 ****
 35  36  37  38  39  40  41  42  43  44  45 0
 3-21G
 ****


