%nproc=1
%NoSave
%Mem=1900MB
#P OB98/GEN NMR

erre ene a

0 1
  C      412.409     -44.977    -182.239
  O      411.336     -45.496    -181.441
  P      411.691     -46.612    -180.342
  C      411.532     -45.408    -178.039
  O      412.370     -45.878    -179.087
  C      411.238     -46.526    -177.042
  O      412.437     -46.945    -176.353
  C      410.263     -46.120    -175.946
  O      408.936     -46.120    -176.431
  C      410.533     -47.172    -174.872
  O      409.693     -48.324    -175.037
  C      412.022     -47.533    -175.104
  N      412.880     -47.114    -174.008
  C      412.709     -47.799    -172.795
  O      411.855     -48.677    -172.698
  N      413.497     -47.445    -171.726
  C      414.357     -46.473    -171.842
  N      415.095     -46.168    -170.752
  C      414.552     -45.717    -173.092
  C      413.782     -46.085    -174.126
  O      412.908     -47.406    -181.014
  O      410.552     -47.520    -180.019
  H      408.775     -47.987    -175.057
  H      412.884     -48.340    -180.745
  H      415.271     -44.909    -173.147
  H      413.857     -45.577    -175.088
  H      412.131     -48.621    -175.224
  H      410.340     -46.775    -173.869
  H      410.539     -45.121    -175.556
  H      410.836     -47.385    -177.596
  H      414.939     -46.714    -169.911
  H      410.598     -45.011    -178.446
  H      415.791     -45.427    -170.732
  H      412.046     -44.563    -177.544
  P      408.330     -44.741    -176.968
  C      408.033     -45.577    -179.388
  O      408.736     -44.697    -178.531
  O      409.349     -43.667    -176.350
  O      406.913     -44.434    -176.644
  H      409.030     -42.761    -176.528
  H      408.235     -45.303    -180.434
  H      406.944     -45.494    -179.215
  H      408.359     -46.610    -179.221
  H      412.025     -44.248    -182.922
  H      412.864     -45.775    -182.788
  H      413.138     -44.521    -181.603

 3  4  5  6  7  8  9  10  11  12  13  21  23  27  28  29  30  32 0
 6-311+G(2d,p)
 ****
 34  35 0
 6-311+G(2d,p)
 ****
 1  2  14  15  16  17  18  19  20  22  24  25  26 0
 3-21G
 ****
 31  33  36  37  38  39  40  41  42  43  44  45  46 0
 3-21G
 ****


