%nproc=1
%NoSave
%Mem=1900MB
#P OB98/GEN NMR

erre ene a

0 1
  C       -6.078    -192.564    -174.088
  O       -7.464    -192.741    -173.891
  H       -5.925    -191.682    -174.716
  H       -5.664    -193.436    -174.604
  H       -5.557    -192.414    -173.141
  P       -7.958    -193.732    -172.733
  C       -7.610    -195.917    -174.070
  O       -7.204    -195.134    -172.953
  C       -7.553    -197.414    -173.742
  O       -8.238    -198.158    -174.779
  C       -6.106    -197.904    -173.727
  O       -5.919    -199.011    -172.848
  C       -5.885    -198.363    -175.158
  O       -4.811    -199.291    -175.292
  C       -7.263    -198.943    -175.493
  N       -7.621    -201.657    -179.788
  C       -7.142    -202.041    -178.554
  N       -6.675    -203.308    -178.453
  N       -7.107    -201.249    -177.514
  C       -7.533    -199.988    -177.778
  C       -8.009    -199.487    -178.968
  C       -8.079    -200.384    -180.101
  O       -8.481    -200.094    -181.226
  N       -8.330    -198.153    -178.854
  C       -8.048    -197.852    -177.606
  N       -7.572    -198.937    -176.905
  O       -9.466    -194.079    -173.148
  O       -7.883    -193.187    -171.340
  H       -4.712    -199.494    -176.241
  H       -9.984    -194.339    -172.364
  H       -7.640    -202.314    -180.553
  H       -8.171    -196.872    -177.157
  H       -7.336    -199.981    -175.140
  H       -5.631    -197.488    -175.770
  H       -6.522    -203.892    -179.260
  H       -5.405    -197.110    -173.449
  H       -6.064    -203.507    -177.658
  H       -8.081    -197.616    -172.802
  H       -6.924    -195.686    -174.892
  H       -8.615    -195.627    -174.386
  P       -5.102    -198.756    -171.492
  C       -2.684    -199.272    -172.364
  O       -3.611    -198.316    -171.890
  O       -4.930    -200.219    -170.874
  O       -5.787    -197.822    -170.544
  H       -5.533    -200.341    -170.115
  H       -1.752    -198.791    -172.575
  H       -3.062    -199.723    -173.257
  H       -2.536    -200.025    -171.619

 6  7  8  9  10  11  12  13  14  15  26  29  33  34 0
 6-311+G(2d,p)
 ****
 36  38  39  40  41 0
 6-311+G(2d,p)
 ****
 1  2  3  4  5  16  17  18  19  20  21  22  23  24  25 0
 3-21G
 ****
 27  28  30  31  32  35  37  42  43  44  45  46  47 0
 3-21G
 ****
 48  49 0
 3-21G
 ****


