%nproc=1
%NoSave
%Mem=1900MB
#P OB98/GEN NMR

erre ene a

0 1
  C      426.323    -894.822     805.938
  O      426.734    -896.082     806.435
  H      427.077    -894.452     805.237
  H      426.212    -894.102     806.752
  H      425.365    -894.912     805.406
  P      425.692    -896.872     807.355
  C      427.143    -896.332     809.472
  O      425.854    -896.332     808.865
  C      427.072    -895.662     810.852
  O      426.619    -894.292     810.734
  C      426.053    -896.302     811.786
  O      426.487    -897.562     812.257
  C      425.985    -895.232     812.867
  O      427.103    -895.312     813.762
  C      426.045    -893.932     812.022
  N      424.742    -893.292     811.871
  C      424.268    -892.642     813.020
  O      424.923    -892.622     814.053
  N      423.023    -892.042     812.952
  C      422.330    -892.092     811.857
  N      421.117    -891.502     811.873
  C      422.815    -892.752     810.631
  C      424.012    -893.332     810.707
  O      426.330    -898.342     807.426
  O      424.270    -896.842     806.873
  H      427.912    -895.342     813.193
  H      427.259    -898.352     807.726
  H      422.202    -892.752     809.723
  H      424.452    -893.852     809.846
  H      426.740    -893.212     812.486
  H      425.080    -895.332     813.472
  H      425.080    -896.352     811.284
  H      428.080    -895.672     811.280
  H      420.793    -891.072     812.732
  H      427.885    -895.822     808.841
  H      420.467    -891.502     811.070
  H      427.479    -897.372     809.581
  P      425.440    -898.552     812.990
  C      426.834    -898.942     815.127
  O      425.655    -898.332     814.569
  O      425.491    -899.972     812.539
  O      424.026    -897.832     812.739
  H      423.959    -896.932     813.091
  H      426.880    -898.735     816.176
  H      427.703    -898.543     814.647
  H      426.795    -900.000     814.973

 6  7  8  9  10  11  12  13  14  15  16  26  30  31  32  33  35 0
 6-311+G(2d,p)
 ****
 37  38 0
 6-311+G(2d,p)
 ****
 1  2  3  4  5  17  18  19  20  21  22  23  24  25 0
 3-21G
 ****
 27  28  29  34  36  39  40  41  42  43  44  45  46 0
 3-21G
 ****


