%nproc=1
%NoSave
%Mem=1900MB
#P OB98/GEN NMR

erre ene a

0 1
  C     -333.158      39.696     166.848
  O     -333.646      40.334     168.037
  P     -333.269      41.842     168.430
  C     -331.275      42.994     169.600
  O     -331.699      41.928     168.756
  C     -329.873      42.742     170.169
  O     -329.918      41.738     171.205
  C     -328.854      42.232     169.156
  O     -328.402      43.280     168.315
  C     -327.789      41.650     170.081
  O     -326.911      42.674     170.570
  C     -328.642      41.068     171.223
  N     -328.800      39.621     171.128
  C     -327.638      38.882     170.903
  O     -326.556      39.448     170.740
  N     -327.730      37.508     170.839
  C     -328.893      36.940     170.920
  N     -328.925      35.578     170.861
  C     -330.158      37.690     171.068
  C     -330.036      39.015     171.165
  O     -334.142      42.429     169.493
  O     -333.414      42.677     167.070
  H     -327.484      43.430     170.828
  H     -333.679      43.592     167.284
  H     -331.103      37.178     171.104
  H     -330.910      39.641     171.286
  H     -328.193      41.307     172.199
  H     -327.169      40.901     169.582
  H     -329.300      41.427     168.557
  H     -329.523      43.678     170.623
  H     -328.043      35.095     170.768
  H     -331.988      43.085     170.427
  H     -329.774      35.037     170.913
  H     -331.288      43.924     169.026
  P     -328.583      43.159     166.726
  C     -328.244      41.333     164.955
  O     -327.943      41.760     166.272
  O     -328.143      44.346     165.933
  O     -330.158      42.895     166.544
  H     -330.448      43.292     165.697
  H     -327.471      40.626     164.635
  H     -328.263      42.172     164.257
  H     -329.212      40.822     164.945
  H     -333.540      38.698     166.797
  H     -332.089      39.668     166.871
  H     -333.482      40.246     165.989

 3  4  5  6  7  8  9  10  11  12  13  23  27  28  29  30  32 0
 6-311+G(2d,p)
 ****
 34  35 0
 6-311+G(2d,p)
 ****
 1  2  14  15  16  17  18  19  20  21  22  24  25  26 0
 3-21G
 ****
 31  33  36  37  38  39  40  41  42  43  44  45  46 0
 3-21G
 ****


