%nproc=1
%NoSave
%Mem=1900MB
#P OB98/GEN NMR

erre ene a

0 1
  C      113.886     333.467       4.185
  O      112.976     334.524       4.438
  P      113.132     335.864       3.565
  C      114.676     336.927       5.365
  O      113.494     337.048       4.585
  C      114.535     337.669       6.695
  O      115.742     337.463       7.480
  C      114.333     339.190       6.558
  O      113.466     339.589       7.627
  C      115.744     339.715       6.763
  O      115.804     341.099       7.074
  C      116.229     338.771       7.857
  N      120.210     340.813      10.335
  C      118.875     340.984      10.477
  N      117.874     340.398       9.787
  C      118.366     339.544       8.869
  C      119.699     339.282       8.596
  C      120.648     339.958       9.381
  N      122.011     339.788       9.228
  N      119.817     338.371       7.566
  C      118.576     338.093       7.221
  N      117.667     338.759       7.992
  O      111.628     336.193       3.139
  O      114.038     335.744       2.377
  H      115.471     341.623       6.321
  H      111.582     336.532       2.224
  H      118.573     341.686      11.252
  H      118.287     337.427       6.418
  H      115.799     339.017       8.839
  H      116.317     339.572       5.841
  H      113.883     339.486       5.604
  H      113.702     337.226       7.251
  H      115.517     337.363       4.815
  H      122.602     340.460       9.693
  H      122.323     339.314       8.385
  H      114.897     335.867       5.526
  P      112.046     340.242       7.271
  C      113.401     342.319       6.599
  O      112.311     341.822       7.360
  O      111.240     339.973       8.630
  O      111.379     339.726       6.043
  H      111.744     340.270       9.409
  H      113.405     343.411       6.675
  H      113.294     342.035       5.551
  H      114.341     341.934       7.003
  H      113.667     332.645       4.833
  H      114.885     333.806       4.364
  H      113.793     333.153       3.166

 3  4  5  6  7  8  9  10  11  12  22  25  29  30  31  32 0
 6-311+G(2d,p)
 ****
 33  36  37 0
 6-311+G(2d,p)
 ****
 1  2  13  14  15  16  17  18  19  20  21  23  24  26 0
 3-21G
 ****
 27  28  34  35  38  39  40  41  42  43  44  45  46  47  48 0
 3-21G
 ****


