%nproc=1
%NoSave
%Mem=1900MB
#P OB98/GEN NMR

erre ene a

0 1
  C      110.183      37.074     287.750
  O      111.051      36.071     287.257
  H      109.314      36.591     288.204
  H      109.846      37.719     286.934
  H      110.695      37.669     288.511
  P      112.380      36.574     286.517
  C      113.897      37.749     288.237
  O      113.516      36.510     287.653
  C      114.947      37.526     289.326
  O      115.456      38.818     289.749
  C      114.399      36.814     290.565
  O      115.388      35.916     291.066
  C      114.185      37.942     291.559
  O      114.233      37.493     292.910
  C      115.303      38.911     291.175
  N      114.415      41.972     295.158
  C      114.839      40.693     295.078
  N      115.066      39.955     293.970
  C      114.854      40.687     292.861
  C      114.419      41.998     292.785
  C      114.187      42.651     294.008
  N      113.730      43.945     294.099
  N      114.279      42.384     291.466
  C      114.638      41.329     290.759
  N      114.979      40.273     291.561
  O      112.269      37.876     285.798
  O      112.739      35.313     285.600
  H      114.171      38.276     293.496
  H      112.642      34.475     286.090
  H      115.013      40.192     296.027
  H      114.655      41.275     289.676
  H      116.259      38.657     291.647
  H      113.202      38.400     291.390
  H      113.476      36.271     290.361
  H      115.793      36.980     288.893
  H      113.022      38.245     288.670
  H      113.604      44.343     295.017
  H      113.572      44.475     293.253
  H      114.301      38.386     287.444
  P      115.025      34.358     291.161
  C      117.021      32.939     290.347
  O      116.371      33.537     291.465
  O      114.175      33.816     290.061
  O      114.255      34.269     292.566
  H      113.525      33.625     292.488
  H      117.899      32.425     290.678
  H      117.296      33.699     289.646
  H      116.356      32.244     289.878

 6  7  8  9  10  11  12  13  14  15  25  28  32  33  34  35 0
 6-311+G(2d,p)
 ****
 36  39  40 0
 6-311+G(2d,p)
 ****
 1  2  3  4  5  16  17  18  19  20  21  22  23  24 0
 3-21G
 ****
 26  27  29  30  31  37  38  41  42  43  44  45  46  47 0
 3-21G
 ****
 48 0
 3-21G
 ****


