%nproc=1
%NoSave
%Mem=1900MB
#P OB98/GEN NMR

erre ene a

0 1
  C       40.759       8.832     -22.431
  O       42.174       8.973     -22.573
  P       43.157       7.759     -22.205
  C       43.746       6.289     -20.195
  O       43.021       7.431     -20.638
  C       43.122       5.607     -18.971
  O       43.053       6.520     -17.848
  C       41.709       5.057     -19.192
  O       41.615       3.885     -18.377
  C       40.840       6.171     -18.640
  O       39.520       5.738     -18.338
  C       41.678       6.627     -17.438
  N       41.343       7.981     -17.009
  C       40.003       8.238     -16.716
  O       39.153       7.362     -16.878
  N       39.648       9.496     -16.294
  C       40.538      10.437     -16.264
  N       40.122      11.669     -15.862
  C       41.949      10.232     -16.649
  C       42.277       8.989     -16.996
  O       44.562       7.925     -22.684
  O       42.473       6.488     -22.905
  H       39.549       5.221     -17.505
  H       43.165       5.848     -23.156
  H       42.649      11.053     -16.633
  H       43.288       8.735     -17.290
  H       41.532       5.949     -16.587
  H       40.764       6.979     -19.376
  H       41.490       4.827     -20.236
  H       43.794       4.793     -18.675
  H       39.142      11.774     -15.631
  H       44.766       6.600     -19.950
  H       40.702      12.493     -15.911
  H       43.819       5.573     -21.021
  P       40.828       2.578     -18.858
  C       38.618       1.430     -18.272
  O       39.403       2.600     -18.131
  O       41.584       1.298     -18.707
  O       40.463       2.858     -20.394
  H       40.238       2.016     -20.830
  H       37.782       1.476     -17.571
  H       39.212       0.536     -18.059
  H       38.226       1.371     -19.291
  H       40.279       9.742     -22.724
  H       40.523       8.616     -21.410
  H       40.416       8.032     -23.053

 3  4  5  6  7  8  9  10  11  12  13  23  27  28  29  30  32 0
 6-311+G(2d,p)
 ****
 34  35 0
 6-311+G(2d,p)
 ****
 1  2  14  15  16  17  18  19  20  21  22  24  25  26 0
 3-21G
 ****
 31  33  36  37  38  39  40  41  42  43  44  45  46 0
 3-21G
 ****


