%nproc=1
%NoSave
%Mem=1900MB
#P OB98/GEN NMR

erre ene a

0 1
  C      196.413     -93.708      14.372
  O      195.641     -92.545      14.154
  H      197.286     -93.678      13.713
  H      195.827     -94.599      14.133
  H      196.761     -93.758      15.408
  P      194.411     -92.239      15.136
  C      192.819     -93.308      13.411
  O      193.252     -93.281      14.766
  C      191.448     -93.972      13.315
  O      191.516     -95.326      13.808
  C      190.367     -93.284      14.138
  O      189.927     -92.096      13.506
  C      189.325     -94.391      14.219
  O      188.552     -94.454      13.013
  C      190.222     -95.645      14.367
  N      190.348     -96.102      15.751
  C      189.620     -97.237      16.096
  O      188.874     -97.820      15.313
  N      189.767     -97.671      17.388
  C      190.486     -97.044      18.365
  O      190.544     -97.445      19.524
  C      191.206     -95.831      17.952
  C      191.105     -95.422      16.685
  O      193.975     -90.812      15.205
  O      194.927     -92.766      16.559
  H      187.875     -95.146      13.150
  H      195.231     -92.013      17.098
  H      189.239     -98.484      17.661
  H      191.783     -95.304      18.702
  H      191.623     -94.526      16.363
  H      189.818     -96.472      13.770
  H      188.621     -94.247      15.039
  H      190.735     -93.074      15.150
  H      191.163     -94.014      12.255
  H      193.546     -93.879      12.820
  H      192.781     -92.281      13.032
  P      189.632     -90.775      14.359
  C      187.111     -91.206      14.493
  O      188.313     -91.050      15.235
  O      189.605     -89.503      13.578
  O      190.798     -90.755      15.457
  H      191.453     -90.066      15.230
  H      186.298     -91.384      15.165
  H      187.209     -92.036      13.825
  H      186.921     -90.316      13.930

 6  7  8  9  10  11  12  13  14  15  16  26  31  32  33  34  35 0
 6-311+G(2d,p)
 ****
 36  37 0
 6-311+G(2d,p)
 ****
 1  2  3  4  5  17  18  19  20  21  22  23  24  25 0
 3-21G
 ****
 27  28  29  30  38  39  40  41  42  43  44  45 0
 3-21G
 ****


