%nproc=1
%NoSave
%Mem=1900MB
#P OB98/GEN NMR

erre ene a

0 1
  C      -63.120     307.525     162.483
  O      -61.879     306.851     162.435
  H      -63.269     307.907     163.498
  H      -63.937     306.840     162.244
  H      -63.125     308.371     161.789
  P      -61.421     306.191     161.043
  C      -62.568     304.353     159.618
  O      -62.327     304.866     160.920
  C      -63.041     302.904     159.701
  O      -61.955     302.012     160.036
  C      -64.097     302.634     160.772
  O      -65.383     303.130     160.442
  C      -64.055     301.119     160.805
  O      -64.737     300.588     159.653
  C      -62.530     300.864     160.722
  N      -61.915     300.691     162.039
  C      -61.638     299.380     162.435
  O      -61.913     298.430     161.701
  N      -61.079     299.162     163.673
  C      -60.842     300.168     164.457
  N      -60.297     299.896     165.678
  C      -61.141     301.567     164.091
  C      -61.663     301.754     162.882
  O      -59.950     305.981     160.869
  O      -62.071     307.129     159.921
  H      -64.565     299.627     159.644
  H      -61.807     306.768     159.037
  H      -60.951     302.366     164.792
  H      -61.915     302.755     162.539
  H      -62.313     299.979     160.107
  H      -64.531     300.692     161.690
  H      -63.773     303.013     161.747
  H      -63.399     302.616     158.704
  H      -60.109     298.930     165.900
  H      -61.638     304.430     159.043
  H      -60.150     300.609     166.383
  H      -63.342     304.942     159.120
  P      -66.123     304.036     161.551
  C      -66.846     303.535     164.012
  O      -66.587     303.032     162.714
  O      -67.485     304.452     160.825
  O      -65.339     305.215     162.033
  H      -67.415     305.350     160.452
  H      -67.142     302.731     164.653
  H      -67.631     304.260     163.963
  H      -65.961     303.994     164.400

 6  7  8  9  10  11  12  13  14  15  16  26  30  31  32  33  35 0
 6-311+G(2d,p)
 ****
 37  38 0
 6-311+G(2d,p)
 ****
 1  2  3  4  5  17  18  19  20  21  22  23  24  25 0
 3-21G
 ****
 27  28  29  34  36  39  40  41  42  43  44  45  46 0
 3-21G
 ****


