%nproc=1
%NoSave
%Mem=1900MB
#P OB98/GEN NMR

erre ene a

0 1
  C       31.041     -16.630      69.729
  O       30.261     -17.531      68.965
  P       29.991     -18.988      69.576
  C       27.395     -18.847      69.775
  O       28.648     -18.896      70.445
  C       26.260     -18.941      70.797
  O       26.154     -17.712      71.546
  C       24.891     -19.157      70.169
  O       24.700     -20.512      69.794
  C       23.964     -18.701      71.287
  O       23.753     -19.752      72.243
  C       24.768     -17.545      71.916
  N       24.257     -16.233      71.532
  C       24.213     -15.277      72.543
  O       24.557     -15.514      73.702
  N       23.721     -14.052      72.188
  C       23.228     -13.710      70.961
  O       22.748     -12.610      70.718
  C       23.274     -14.769      69.939
  C       23.771     -15.964      70.268
  O       31.144     -19.163      70.674
  O       30.006     -20.093      68.575
  H       24.640     -20.045      72.534
  H       31.435     -20.094      70.702
  H       23.704     -13.338      72.898
  H       22.890     -14.533      68.956
  H       23.800     -16.761      69.534
  H       24.738     -17.618      73.010
  H       22.978     -18.408      70.912
  H       24.765     -18.491      69.306
  H       26.494     -19.751      71.500
  H       27.327     -19.679      69.071
  H       27.328     -17.912      69.211
  P       25.033     -20.897      68.270
  C       26.328     -23.150      68.542
  O       26.385     -21.755      68.344
  O       25.472     -19.471      67.690
  O       23.881     -21.531      67.565
  H       25.910     -18.921      68.362
  H       25.463     -23.591      68.038
  H       26.273     -23.363      69.612
  H       27.238     -23.601      68.138
  H       31.137     -15.705      69.200
  H       32.012     -17.049      69.893
  H       30.564     -16.455      70.671

 3  4  5  6  7  8  9  10  11  12  13  23  28  29  30  31  32 0
 6-311+G(2d,p)
 ****
 33  34 0
 6-311+G(2d,p)
 ****
 1  2  14  15  16  17  18  19  20  21  22  24  25  26 0
 3-21G
 ****
 27  35  36  37  38  39  40  41  42  43  44  45 0
 3-21G
 ****


