%nproc=1
%NoSave
%Mem=1900MB
#P OB98/GEN NMR

erre ene a

0 1
  C     -167.248     -32.374    -277.551
  O     -166.321     -32.796    -276.548
  P     -164.909     -32.025    -276.500
  C     -165.091     -32.435    -273.935
  O     -164.662     -31.571    -274.980
  C     -164.138     -32.358    -272.747
  O     -162.839     -32.871    -273.089
  C     -163.883     -30.945    -272.237
  O     -164.942     -30.484    -271.413
  C     -162.613     -31.148    -271.420
  O     -162.948     -31.646    -270.112
  C     -161.869     -32.220    -272.231
  N     -157.106     -32.852    -273.858
  C     -157.858     -33.628    -273.000
  N     -157.268     -34.747    -272.527
  N     -159.082     -33.336    -272.634
  C     -159.554     -32.203    -273.208
  C     -158.908     -31.349    -274.071
  C     -157.545     -31.668    -274.441
  O     -156.826     -31.000    -275.173
  N     -159.718     -30.309    -274.448
  C     -160.861     -30.547    -273.838
  N     -160.807     -31.679    -273.060
  O     -165.229     -30.648    -277.249
  O     -163.790     -32.771    -277.150
  H     -162.107     -31.748    -269.623
  H     -164.415     -30.288    -277.653
  H     -156.171     -33.119    -274.099
  H     -161.751     -29.942    -273.928
  H     -161.437     -32.992    -271.582
  H     -162.054     -30.222    -271.274
  H     -156.358     -35.072    -272.820
  H     -163.688     -30.258    -273.071
  H     -157.816     -35.351    -271.921
  H     -164.551     -32.977    -271.936
  H     -165.134     -33.464    -274.298
  H     -166.107     -32.158    -273.640
  P     -165.673     -29.121    -271.846
  C     -167.933     -30.124    -271.064
  O     -167.202     -29.520    -272.109
  O     -165.084     -28.849    -273.313
  O     -165.437     -27.973    -270.924
  H     -165.081     -27.892    -273.498
  H     -167.735     -29.632    -270.104
  H     -167.663     -31.185    -270.991
  H     -169.001     -30.045    -271.283
  H     -168.141     -32.959    -277.480
  H     -166.811     -32.506    -278.519
  H     -167.485     -31.341    -277.405

 3  4  5  6  7  8  9  10  11  12  23  26  30  31  33  0
 6-311+G(2d,p)
 ****
 35  36  37  38 0
 6-311+G(2d,p)
 ****
 1  2  13  14  15  16  17  18  19  20  21  22  24  25  27  28  29 0
 3-21G
 ****
 32  34  39  40  41  42  43  44  45  46  47  48  49 0
 3-21G
 ****


