%nproc=1
%NoSave
%Mem=1900MB
#P OB98/GEN NMR

erre ene a

0 1
  C      368.092    -697.347      73.349
  O      369.261    -696.739      72.836
  P      370.252    -697.549      71.863
  C      371.967    -699.430      72.269
  O      370.771    -698.790      72.733
  C      372.946    -699.649      73.425
  O      372.522    -700.761      74.251
  C      374.364    -699.993      72.975
  O      375.042    -698.825      72.541
  C      374.932    -700.618      74.245
  O      375.376    -699.609      75.174
  C      373.703    -701.367      74.816
  N      373.755    -702.803      74.554
  C      374.371    -703.583      75.527
  O      374.872    -703.055      76.527
  N      374.470    -704.936      75.327
  C      373.991    -705.453      74.233
  N      374.132    -706.814      74.095
  C      373.358    -704.662      73.166
  C      373.273    -703.354      73.383
  O      371.313    -696.734      71.206
  O      369.244    -698.237      70.816
  H      375.479    -700.068      76.043
  H      368.887    -697.583      70.173
  H      372.990    -705.149      72.269
  H      372.821    -702.704      72.655
  H      373.629    -701.214      75.902
  H      375.786    -701.269      74.039
  H      374.334    -700.751      72.183
  H      372.952    -698.748      74.049
  H      374.600    -707.320      74.833
  H      372.434    -698.789      71.514
  H      373.836    -707.318      73.265
  H      371.710    -700.388      71.784
  P      376.112    -698.926      71.343
  C      378.522    -699.747      71.044
  O      377.495    -699.411      71.969
  O      376.183    -697.715      70.453
  O      375.615    -700.206      70.508
  H      375.650    -699.997      69.565
  H      379.484    -699.738      71.569
  H      378.556    -699.023      70.216
  H      378.341    -700.742      70.639
  H      367.571    -696.650      73.971
  H      368.361    -698.207      73.926
  H      367.460    -697.644      72.539

 3  4  5  6  7  8  9  10  11  12  13  23  27  28  29  30  32 0
 6-311+G(2d,p)
 ****
 34  35 0
 6-311+G(2d,p)
 ****
 1  2  14  15  16  17  18  19  20  21  22  24  25  26 0
 3-21G
 ****
 31  33  36  37  38  39  40  41  42  43  44  45  46 0
 3-21G
 ****


