%nproc=1
%NoSave
%Mem=1900MB
#P OB98/GEN NMR

erre ene a

0 1
  C     -501.194    -610.034    -288.565
  O     -502.612    -610.023    -288.736
  P     -503.276    -611.361    -289.325
  C     -505.629    -611.221    -288.241
  O     -504.866    -611.122    -289.436
  C     -505.748    -609.864    -287.540
  O     -506.371    -608.880    -288.419
  C     -506.577    -609.900    -286.258
  O     -506.022    -608.945    -285.341
  C     -507.933    -609.407    -286.711
  O     -508.716    -608.946    -285.604
  C     -507.506    -608.344    -287.715
  N     -510.854    -604.733    -289.071
  C     -509.917    -604.776    -288.106
  N     -509.078    -605.787    -287.793
  C     -509.249    -606.822    -288.635
  C     -510.179    -606.926    -289.661
  C     -511.005    -605.814    -289.872
  N     -511.989    -605.783    -290.838
  N     -510.088    -608.161    -290.276
  C     -509.126    -608.793    -289.620
  N     -508.571    -608.006    -288.648
  O     -503.135    -612.400    -288.114
  O     -502.620    -611.872    -290.563
  H     -508.348    -608.087    -285.308
  H     -502.453    -613.068    -288.331
  H     -509.828    -603.883    -287.494
  H     -508.804    -609.792    -289.812
  H     -507.203    -607.403    -287.234
  H     -508.483    -610.219    -287.211
  H     -506.628    -610.889    -285.776
  H     -504.729    -609.501    -287.311
  H     -505.166    -611.940    -287.556
  H     -512.565    -604.957    -290.905
  H     -512.148    -606.598    -291.408
  H     -506.616    -611.628    -288.485
  P     -505.726    -609.474    -283.852
  C     -503.845    -607.690    -283.603
  O     -505.045    -608.253    -283.072
  O     -504.519    -610.522    -284.047
  O     -506.905    -610.087    -283.183
  H     -504.533    -611.174    -283.328
  H     -503.901    -606.603    -283.495
  H     -503.719    -607.939    -284.660
  H     -503.007    -608.066    -283.030
  H     -500.875    -609.093    -288.169
  H     -500.722    -610.201    -289.511
  H     -500.923    -610.816    -287.887

 3  4  5  6  7  8  9  10  11  12  22  25  29  30  31  32 0
 6-311+G(2d,p)
 ****
 33  36  37 0
 6-311+G(2d,p)
 ****
 1  2  13  14  15  16  17  18  19  20  21  23  24  26 0
 3-21G
 ****
 27  28  34  35  38  39  40  41  42  43  44  45  46  47  48 0
 3-21G
 ****


