%nproc=1
%NoSave
%Mem=1900MB
#P OB98/GEN NMR

erre ene a

0 1
  C      279.303    -184.079    -127.381
  O      280.700    -184.044    -127.719
  P      281.790    -183.959    -126.539
  C      283.750    -185.217    -127.717
  O      283.278    -184.008    -127.146
  C      285.128    -185.019    -128.380
  O      284.962    -184.468    -129.715
  C      286.070    -184.074    -127.620
  O      287.410    -184.542    -127.837
  C      285.860    -182.749    -128.336
  O      286.917    -181.825    -128.132
  C      285.727    -183.246    -129.783
  N      285.106    -182.285    -130.696
  C      285.818    -181.135    -131.018
  O      286.913    -180.837    -130.545
  N      285.209    -180.286    -131.910
  C      283.969    -180.451    -132.460
  O      283.468    -179.637    -133.229
  C      283.250    -181.669    -132.061
  C      283.842    -182.515    -131.211
  O      281.657    -185.407    -125.860
  O      281.558    -182.891    -125.524
  H      286.640    -180.978    -128.529
  H      281.623    -185.311    -124.891
  H      285.718    -179.452    -132.166
  H      282.267    -181.838    -132.481
  H      283.334    -183.427    -130.910
  H      286.718    -183.518    -130.167
  H      284.936    -182.285    -127.977
  H      285.854    -184.022    -126.547
  H      285.589    -186.006    -128.500
  H      283.042    -185.567    -128.468
  H      283.824    -185.976    -126.928
  P      288.289    -184.966    -126.558
  C      289.568    -186.974    -127.662
  O      289.612    -185.669    -127.113
  O      287.419    -186.204    -126.011
  O      288.477    -183.882    -125.549
  H      287.141    -186.808    -126.718
  H      288.673    -187.113    -128.282
  H      289.557    -187.710    -126.849
  H      290.456    -187.131    -128.271
  H      278.721    -184.135    -128.277
  H      279.044    -183.192    -126.842
  H      279.105    -184.936    -126.772

 3  4  5  6  7  8  9  10  11  12  13  23  28  29  30  31  32 0
 6-311+G(2d,p)
 ****
 33  34 0
 6-311+G(2d,p)
 ****
 1  2  14  15  16  17  18  19  20  21  22  24  25  26 0
 3-21G
 ****
 27  35  36  37  38  39  40  41  42  43  44  45 0
 3-21G
 ****


