%nproc=1
%NoSave
%Mem=1900MB
#P OB98/GEN NMR

erre ene a

0 1
  C     -284.609     264.202     419.377
  O     -284.959     264.235     420.745
  H     -283.527     264.085     419.291
  H     -284.901     265.137     418.891
  H     -285.096     263.358     418.877
  P     -286.523     264.311     421.092
  C     -286.693     266.195     422.867
  O     -286.628     264.796     422.619
  C     -287.326     266.472     424.230
  O     -288.703     266.003     424.214
  C     -286.620     265.780     425.410
  O     -286.701     266.648     426.543
  C     -287.510     264.575     425.672
  O     -287.356     264.060     426.990
  C     -288.881     265.184     425.383
  N     -293.210     263.363     427.198
  C     -292.449     264.446     427.604
  N     -292.913     265.159     428.652
  N     -291.334     264.803     427.022
  C     -291.009     264.029     425.970
  C     -291.664     262.927     425.469
  C     -292.886     262.528     426.134
  O     -293.589     261.568     425.834
  N     -290.994     262.390     424.397
  C     -289.935     263.169     424.249
  N     -289.900     264.171     425.176
  O     -286.945     262.767     421.156
  O     -287.359     265.079     420.119
  H     -288.076     263.407     427.147
  H     -287.283     262.474     420.290
  H     -294.048     263.127     427.687
  H     -289.169     263.033     423.496
  H     -289.234     265.824     426.203
  H     -287.281     263.772     424.963
  H     -293.792     264.968     429.119
  H     -285.579     265.512     425.219
  H     -292.397     265.977     428.939
  H     -287.359     267.558     424.381
  H     -287.298     266.665     422.085
  H     -285.681     266.609     422.831
  P     -285.466     266.659     427.573
  C     -287.037     266.832     429.643
  O     -285.947     267.385     428.923
  O     -284.474     267.738     426.924
  O     -284.803     265.333     427.751
  H     -283.555     267.528     427.175
  H     -287.231     267.428     430.510
  H     -286.796     265.834     429.943
  H     -287.906     266.817     429.019

 6  7  8  9  10  11  12  13  14  15  26  29  33  34 0
 6-311+G(2d,p)
 ****
 36  38  39  40  41 0
 6-311+G(2d,p)
 ****
 1  2  3  4  5  16  17  18  19  20  21  22  23  24  25 0
 3-21G
 ****
 27  28  30  31  32  35  37  42  43  44  45  46  47 0
 3-21G
 ****
 48  49 0
 3-21G
 ****


