%nproc=1
%NoSave
%Mem=1900MB
#P OB98/GEN NMR

erre ene a

0 1
  C     -216.205     -24.245     -80.287
  O     -216.444     -22.896     -79.939
  H     -216.992     -24.578     -80.971
  H     -216.226     -24.879     -79.396
  H     -215.238     -24.339     -80.791
  P     -215.457     -22.244     -78.858
  C     -216.880     -22.573     -76.703
  O     -215.746     -22.979     -77.460
  C     -217.011     -23.457     -75.460
  O     -217.091     -24.847     -75.861
  C     -215.822     -23.377     -74.513
  O     -215.853     -22.220     -73.690
  C     -216.001     -24.655     -73.716
  O     -216.919     -24.483     -72.628
  C     -216.561     -25.632     -74.770
  N     -215.547     -26.584     -75.223
  C     -215.611     -27.852     -74.643
  O     -216.457     -28.170     -73.803
  N     -214.643     -28.734     -75.030
  C     -213.607     -28.465     -75.884
  O     -212.735     -29.285     -76.143
  C     -213.580     -27.107     -76.452
  C     -214.535     -26.238     -76.098
  O     -216.068     -20.776     -78.645
  O     -214.019     -22.198     -79.261
  H     -215.496     -20.116     -79.081
  H     -217.727     -24.093     -73.014
  H     -214.672     -29.656     -74.627
  H     -212.772     -26.857     -77.128
  H     -214.530     -25.228     -76.493
  H     -217.405     -26.202     -74.355
  H     -215.059     -24.991     -73.292
  H     -214.880     -23.436     -75.079
  H     -217.938     -23.192     -74.941
  H     -217.787     -22.678     -77.311
  H     -216.763     -21.517     -76.423
  P     -214.450     -21.627     -73.181
  C     -214.433     -23.319     -71.159
  O     -213.776     -22.790     -72.304
  O     -214.954     -20.552     -72.110
  O     -213.606     -21.076     -74.287
  H     -215.824     -20.796     -71.733
  H     -213.823     -24.079     -70.717
  H     -215.373     -23.740     -71.450
  H     -214.598     -22.536     -70.449

 6  7  8  9  10  11  12  13  14  15  16  27  31  32  33  34  35 0
 6-311+G(2d,p)
 ****
 36  37 0
 6-311+G(2d,p)
 ****
 1  2  3  4  5  17  18  19  20  21  22  23  24  25 0
 3-21G
 ****
 26  28  29  30  38  39  40  41  42  43  44  45 0
 3-21G
 ****


