%nproc=1
%NoSave
%Mem=1900MB
#P OB98/GEN NMR

erre ene a

0 1
  C     -713.881     725.449     -27.031
  O     -713.741     724.403     -26.098
  H     -714.632     725.191     -27.785
  H     -714.208     726.348     -26.505
  H     -712.919     725.661     -27.516
  P     -713.359     722.956     -26.697
  C     -715.910     722.487     -26.835
  O     -714.656     722.447     -27.505
  C     -716.791     721.339     -27.291
  O     -717.057     721.444     -28.705
  C     -716.180     719.946     -27.104
  O     -716.283     719.503     -25.756
  C     -717.062     719.130     -28.041
  O     -718.301     718.812     -27.387
  C     -717.310     720.104     -29.196
  N     -717.124     719.852     -34.326
  C     -718.134     720.126     -33.476
  N     -718.124     720.164     -32.135
  C     -716.883     719.895     -31.657
  C     -715.753     719.599     -32.414
  C     -715.905     719.575     -33.807
  N     -714.867     719.280     -34.671
  N     -714.665     719.399     -31.586
  C     -715.133     719.561     -30.361
  N     -716.462     719.866     -30.361
  O     -713.333     722.007     -25.409
  O     -712.070     722.894     -27.451
  H     -718.922     718.523     -28.088
  H     -712.626     721.337     -25.519
  H     -719.101     720.353     -33.948
  H     -714.527     719.487     -29.464
  H     -718.349     720.075     -29.532
  H     -716.602     718.182     -28.335
  H     -715.147     719.919     -27.459
  H     -717.759     721.417     -26.762
  H     -716.410     723.442     -27.060
  H     -714.984     719.474     -35.645
  H     -713.953     719.086     -34.267
  H     -715.735     722.429     -25.759
  P     -714.985     718.862     -25.090
  C     -715.748     716.484     -25.776
  O     -714.732     717.471     -25.848
  O     -715.505     718.400     -23.642
  O     -713.806     719.780     -24.986
  H     -714.755     718.369     -23.012
  H     -715.443     715.617     -26.324
  H     -716.652     716.872     -26.197
  H     -715.916     716.219     -24.753

 6  7  8  9  10  11  12  13  14  15  25  28  32  33  34  35 0
 6-311+G(2d,p)
 ****
 36  39  40 0
 6-311+G(2d,p)
 ****
 1  2  3  4  5  16  17  18  19  20  21  22  23  24 0
 3-21G
 ****
 26  27  29  30  31  37  38  41  42  43  44  45  46  47  48 0
 3-21G
 ****


