%nproc=1
%NoSave
%Mem=1900MB
#P OB98/GEN NMR

erre ene a

0 1
  C       73.728      55.968     109.898
  O       73.201      56.489     108.686
  P       71.629      56.820     108.645
  C       72.105      59.331     109.087
  O       71.446      58.149     109.525
  C       71.124      60.494     109.012
  O       70.122      60.223     108.015
  C       70.356      60.758     110.298
  O       71.123      61.508     111.229
  C       69.181      61.572     109.777
  O       69.576      62.946     109.614
  C       68.915      60.925     108.407
  N       65.229      58.832     105.641
  C       66.186      59.760     105.282
  N       66.175      60.167     103.994
  N       67.072      60.245     106.110
  C       66.988      59.716     107.353
  C       66.083      58.794     107.830
  C       65.075      58.302     106.916
  O       64.163      57.531     107.193
  N       66.327      58.491     109.145
  C       67.395      59.198     109.453
  N       67.816      59.981     108.408
  O       70.995      55.677     109.569
  O       71.021      56.838     107.285
  H       68.822      63.415     109.209
  H       70.064      55.524     109.315
  H       64.581      58.479     104.958
  H       67.892      59.173     110.413
  H       68.723      61.684     107.639
  H       68.322      61.564     110.455
  H       65.606      59.735     103.284
  H       69.991      59.824     110.739
  H       66.893      60.818     103.703
  H       71.678      61.390     108.702
  H       72.530      59.161     108.092
  H       72.921      59.559     109.780
  P       70.632      61.470     112.759
  C       71.162      58.973     113.243
  O       70.172      59.957     113.014
  O       69.262      62.293     112.723
  O       71.609      62.039     113.732
  H       69.080      62.683     113.600
  H       72.000      59.375     113.820
  H       71.527      58.597     112.283
  H       70.716      58.148     113.802
  H       74.778      55.795     109.785
  H       73.238      55.046     110.133
  H       73.565      56.670     110.689

 3  4  5  6  7  8  9  10  11  12  23  26  30  31  33  0
 6-311+G(2d,p)
 ****
 35  36  37  38 0
 6-311+G(2d,p)
 ****
 1  2  13  14  15  16  17  18  19  20  21  22  24  25  27  28  29 0
 3-21G
 ****
 32  34  39  40  41  42  43  44  45  46  47  48  49 0
 3-21G
 ****


