%nproc=1
%NoSave
%Mem=1900MB
#P OB98/GEN NMR

erre ene a

0 1
  C      -80.651     -70.007     -30.935
  O      -80.183     -68.716     -30.582
  P      -81.209     -67.519     -30.271
  C      -80.135     -66.356     -32.313
  O      -81.341     -66.718     -31.652
  C      -80.256     -66.647     -33.807
  O      -80.480     -68.056     -34.010
  C      -81.416     -65.939     -34.496
  O      -81.120     -64.569     -34.719
  C      -81.568     -66.791     -35.751
  O      -80.580     -66.426     -36.726
  C      -81.272     -68.206     -35.212
  N      -82.482     -68.978     -34.952
  C      -83.035     -69.656     -36.041
  O      -82.511     -69.605     -37.154
  N      -84.160     -70.417     -35.841
  C      -84.701     -70.476     -34.663
  N      -85.773     -71.299     -34.508
  C      -84.183     -69.733     -33.501
  C      -83.081     -69.016     -33.713
  O      -80.851     -66.678     -29.094
  O      -82.631     -68.232     -30.148
  H      -80.749     -65.494     -36.964
  H      -82.839     -68.545     -29.233
  H      -84.677     -69.803     -32.542
  H      -82.627     -68.457     -32.906
  H      -80.646     -68.758     -35.921
  H      -82.552     -66.702     -36.222
  H      -82.325     -66.015     -33.888
  H      -79.304     -66.378     -34.287
  H      -85.984     -71.920     -35.281
  H      -79.316     -66.953     -31.897
  H      -86.064     -71.620     -33.594
  H      -79.927     -65.298     -32.132
  P      -82.008     -63.483     -33.944
  C      -82.158     -62.463     -36.323
  O      -82.804     -62.676     -35.082
  O      -80.922     -62.443     -33.399
  O      -82.852     -64.045     -32.849
  H      -80.747     -62.600     -32.453
  H      -82.902     -62.121     -37.046
  H      -81.708     -63.389     -36.691
  H      -81.391     -61.691     -36.217
  H      -79.817     -70.656     -31.101
  H      -81.235     -69.942     -31.829
  H      -81.254     -70.397     -30.142

 3  4  5  6  7  8  9  10  11  12  13  23  27  28  29  30  32 0
 6-311+G(2d,p)
 ****
 34  35 0
 6-311+G(2d,p)
 ****
 1  2  14  15  16  17  18  19  20  21  22  24  25  26 0
 3-21G
 ****
 31  33  36  37  38  39  40  41  42  43  44  45  46 0
 3-21G
 ****


