%nproc=1
%NoSave
%Mem=1900MB
#P OB98/GEN NMR

erre ene a

0 1
  C      265.009     -95.483     -51.545
  O      264.800     -94.140     -51.071
  P      265.873     -93.492     -50.060
  C      266.171     -93.130     -47.485
  O      265.353     -93.614     -48.542
  C      265.719     -93.691     -46.126
  O      264.351     -93.248     -45.824
  C      265.721     -95.224     -46.034
  O      266.043     -95.574     -44.683
  C      264.267     -95.571     -46.326
  O      263.902     -96.871     -45.884
  C      263.562     -94.436     -45.593
  N      262.170     -94.217     -46.004
  C      261.226     -95.194     -45.672
  O      261.498     -96.247     -45.095
  N      259.940     -94.911     -46.050
  C      259.513     -93.817     -46.743
  O      258.356     -93.643     -47.078
  C      260.563     -92.842     -47.097
  C      261.818     -93.083     -46.715
  O      265.707     -91.924     -50.349
  O      267.297     -93.908     -50.277
  H      262.995     -97.037     -46.193
  H      266.585     -91.512     -50.436
  H      259.236     -95.592     -45.796
  H      260.264     -91.954     -47.652
  H      262.607     -92.370     -46.956
  H      263.590     -94.625     -44.510
  H      264.102     -95.529     -47.414
  H      266.427     -95.697     -46.734
  H      266.367     -93.264     -45.349
  H      266.110     -92.035     -47.454
  H      267.212     -93.403     -47.684
  P      267.186     -96.689     -44.435
  C      267.255     -99.010     -43.221
  O      266.516     -97.866     -43.570
  O      268.103     -95.923     -43.363
  O      267.916     -97.105     -45.662
  H      267.591     -95.490     -42.664
  H      268.281     -98.757     -42.927
  H      267.270     -99.711     -44.070
  H      266.764     -99.501     -42.369
  H      264.211     -95.757     -52.202
  H      265.033     -96.155     -50.713
  H      265.939     -95.535     -52.072

 3  4  5  6  7  8  9  10  11  12  13  23  28  29  30  31  32 0
 6-311+G(2d,p)
 ****
 33  34 0
 6-311+G(2d,p)
 ****
 1  2  14  15  16  17  18  19  20  21  22  24  25  26 0
 3-21G
 ****
 27  35  36  37  38  39  40  41  42  43  44  45 0
 3-21G
 ****


