%nproc=1
%NoSave
%Mem=1900MB
#P OB98/GEN NMR

erre ene a

0 1
  C      -89.914    -333.998     109.176
  O      -90.689    -332.958     108.616
  P      -90.200    -332.227     107.279
  C      -92.446    -330.991     107.452
  O      -91.069    -330.891     107.102
  C      -92.980    -329.631     107.899
  O      -92.947    -328.692     106.806
  C      -94.429    -329.658     108.373
  O      -94.525    -330.206     109.674
  C      -94.799    -328.183     108.273
  O      -94.336    -327.464     109.430
  C      -94.021    -327.747     107.021
  N      -96.645    -324.594     103.992
  C      -96.046    -324.404     105.186
  N      -95.397    -325.306     105.950
  C      -95.426    -326.522     105.375
  C      -96.031    -326.876     104.178
  C      -96.645    -325.840     103.456
  N      -97.209    -326.009     102.206
  N      -95.872    -328.229     103.941
  C      -95.194    -328.680     104.979
  N      -94.848    -327.676     105.836
  O      -90.117    -333.094     106.067
  O      -88.751    -331.662     107.667
  H      -94.860    -327.775     110.192
  H      -88.082    -332.057     107.077
  H      -96.083    -323.392     105.573
  H      -94.917    -329.710     105.142
  H      -93.552    -326.762     107.153
  H      -95.877    -328.024     108.202
  H      -95.040    -330.233     107.664
  H      -92.318    -329.252     108.694
  H      -92.543    -331.714     108.269
  H      -97.490    -325.173     101.717
  H      -96.952    -326.835     101.674
  H      -93.012    -331.355     106.588
  P      -95.743    -331.180     110.042
  C      -93.946    -332.232     111.537
  O      -95.325    -331.968     111.371
  O      -96.247    -332.035     108.923
  O      -96.879    -330.174     110.561
  H      -97.754    -330.540     110.339
  H      -93.658    -333.078     110.909
  H      -93.764    -332.489     112.584
  H      -93.348    -331.356     111.274
  H      -90.394    -334.364     110.060
  H      -88.943    -333.624     109.426
  H      -89.818    -334.793     108.467

 3  4  5  6  7  8  9  10  11  12  22  25  29  30  31  32 0
 6-311+G(2d,p)
 ****
 33  36  37 0
 6-311+G(2d,p)
 ****
 1  2  13  14  15  16  17  18  19  20  21  23  24  26 0
 3-21G
 ****
 27  28  34  35  38  39  40  41  42  43  44  45  46  47  48 0
 3-21G
 ****


