%nproc=1
%NoSave
%Mem=1900MB
#P OB98/GEN NMR

erre ene a

0 1
  C      635.334    -148.364     507.518
  O      635.915    -147.939     506.298
  P      634.996    -147.288     505.147
  C      635.675    -148.496     502.979
  O      634.723    -148.416     504.035
  C      635.007    -148.999     501.698
  O      634.768    -150.418     501.775
  C      633.634    -148.380     501.419
  O      633.735    -147.034     500.984
  C      633.084    -149.364     500.379
  O      633.607    -149.071     499.083
  C      633.644    -150.707     500.905
  N      632.629    -151.491     501.584
  C      631.735    -152.192     500.757
  O      631.776    -152.052     499.534
  N      630.812    -153.020     501.343
  C      630.702    -153.054     502.645
  N      629.801    -153.932     503.172
  C      631.514    -152.209     503.539
  C      632.463    -151.467     502.954
  O      635.484    -145.981     504.617
  O      633.571    -147.128     505.844
  H      633.244    -146.217     505.697
  H      634.574    -148.999     499.174
  H      631.339    -152.223     504.608
  H      633.130    -150.844     503.535
  H      634.048    -151.280     500.067
  H      631.994    -149.304     500.324
  H      633.025    -148.424     502.321
  H      635.688    -148.802     500.858
  H      629.286    -154.512     502.527
  H      636.479    -149.172     503.270
  H      629.866    -154.270     504.123
  H      636.114    -147.498     502.809
  P      632.577    -146.029     501.444
  C      631.247    -146.350     499.243
  O      631.244    -146.450     500.666
  O      633.003    -144.640     500.772
  O      632.438    -145.902     502.940
  H      632.778    -143.908     501.377
  H      630.447    -146.983     498.845
  H      632.192    -146.701     498.824
  H      631.071    -145.311     498.954
  H      636.094    -148.767     508.154
  H      634.599    -149.116     507.320
  H      634.870    -147.530     508.001

 3  4  5  6  7  8  9  10  11  12  13  24  27  28  29  30  32 0
 6-311+G(2d,p)
 ****
 34  35 0
 6-311+G(2d,p)
 ****
 1  2  14  15  16  17  18  19  20  21  22  23  25  26 0
 3-21G
 ****
 31  33  36  37  38  39  40  41  42  43  44  45  46 0
 3-21G
 ****


