%nproc=1
%NoSave
%Mem=1900MB
#P OB98/GEN NMR

erre ene a

0 1
  C     -279.249      60.413    -680.755
  O     -280.359      60.425    -681.631
  P     -281.101      61.796    -681.996
  C     -282.174      61.706    -679.674
  O     -281.493      62.517    -680.619
  C     -283.635      62.130    -679.522
  O     -284.268      61.287    -678.527
  C     -283.844      63.590    -679.091
  O     -285.038      64.048    -679.734
  C     -284.075      63.474    -677.598
  O     -284.744      64.594    -677.050
  C     -284.873      62.177    -677.556
  N     -287.732      60.139    -673.834
  C     -288.065      60.729    -675.003
  N     -287.248      61.265    -675.930
  C     -285.960      61.154    -675.553
  C     -285.474      60.606    -674.376
  C     -286.429      60.063    -673.488
  N     -286.105      59.425    -672.315
  N     -284.095      60.729    -674.317
  C     -283.768      61.331    -675.450
  N     -284.852      61.553    -676.242
  O     -282.221      61.666    -682.977
  O     -279.931      62.720    -682.581
  H     -285.061      64.368    -676.160
  H     -280.018      62.792    -683.551
  H     -289.134      60.767    -675.228
  H     -282.769      61.629    -675.731
  H     -285.922      62.321    -677.837
  H     -283.119      63.364    -677.084
  H     -282.999      64.247    -679.346
  H     -284.143      61.940    -680.477
  H     -281.666      61.818    -678.709
  H     -286.858      58.952    -671.828
  H     -285.148      59.117    -672.170
  H     -282.114      60.657    -679.974
  P     -284.996      65.316    -680.714
  C     -286.017      66.733    -678.846
  O     -284.959      66.616    -679.776
  O     -286.024      65.326    -681.792
  O     -283.508      65.268    -681.316
  H     -283.460      65.817    -682.126
  H     -286.909      67.128    -679.357
  H     -285.722      67.425    -678.054
  H     -286.263      65.765    -678.395
  H     -278.897      59.409    -680.639
  H     -279.543      60.800    -679.802
  H     -278.467      61.020    -681.161

 3  4  5  6  7  8  9  10  11  12  22  25  29  30  31  32 0
 6-311+G(2d,p)
 ****
 33  36  37 0
 6-311+G(2d,p)
 ****
 1  2  13  14  15  16  17  18  19  20  21  23  24  26 0
 3-21G
 ****
 27  28  34  35  38  39  40  41  42  43  44  45  46  47  48 0
 3-21G
 ****


