%nproc=1
%NoSave
%Mem=1900MB
#P OB98/GEN NMR

erre ene a

0 1
  C     -111.479     148.889    -193.327
  O     -112.263     149.856    -192.644
  P     -113.102     149.466    -191.334
  C     -114.208     150.835    -189.457
  O     -113.260     150.840    -190.521
  C     -114.738     152.247    -189.222
  O     -113.687     153.034    -188.606
  C     -115.146     153.023    -190.472
  O     -116.464     152.758    -190.930
  C     -115.074     154.458    -189.949
  O     -116.254     154.750    -189.178
  C     -113.842     154.408    -189.042
  N     -110.819     158.411    -190.065
  C     -111.944     158.292    -189.324
  N     -112.702     157.197    -189.118
  C     -112.169     156.130    -189.735
  C     -111.024     156.088    -190.518
  C     -110.331     157.305    -190.676
  N     -109.168     157.417    -191.412
  N     -110.805     154.811    -190.994
  C     -111.786     154.091    -190.498
  N     -112.633     154.838    -189.721
  O     -112.548     148.317    -190.562
  O     -114.581     149.195    -191.877
  H     -117.022     154.470    -189.717
  H     -115.095     148.700    -191.209
  H     -112.288     159.202    -188.841
  H     -111.932     153.041    -190.672
  H     -113.959     155.022    -188.141
  H     -115.025     155.200    -190.752
  H     -114.412     152.898    -191.278
  H     -115.574     152.189    -188.510
  H     -113.703     150.483    -188.549
  H     -108.676     158.290    -191.363
  H     -108.721     156.564    -191.725
  H     -115.018     150.140    -189.690
  P     -116.799     153.139    -192.459
  C     -118.373     152.014    -194.229
  O     -118.047     152.217    -192.869
  O     -115.633     153.085    -193.380
  O     -117.451     154.594    -192.328
  H     -118.314     154.624    -191.875
  H     -119.137     151.235    -194.292
  H     -117.496     151.686    -194.796
  H     -118.770     152.935    -194.658
  H     -111.002     149.347    -194.168
  H     -112.109     148.093    -193.664
  H     -110.736     148.499    -192.663

 3  4  5  6  7  8  9  10  11  12  22  25  29  30  31  32 0
 6-311+G(2d,p)
 ****
 33  36  37 0
 6-311+G(2d,p)
 ****
 1  2  13  14  15  16  17  18  19  20  21  23  24  26 0
 3-21G
 ****
 27  28  34  35  38  39  40  41  42  43  44  45  46  47  48 0
 3-21G
 ****


