%nproc=1
%NoSave
%Mem=1900MB
#P OB98/GEN NMR

erre ene a

0 1
  C      -80.119     -57.467    -228.691
  O      -79.420     -56.386    -228.105
  H      -79.532     -57.853    -229.528
  H      -81.089     -57.129    -229.067
  H      -80.261     -58.266    -227.959
  P      -80.156     -55.641    -226.889
  C      -78.555     -56.656    -225.122
  O      -79.892     -56.539    -225.585
  C      -78.500     -56.508    -223.604
  O      -77.188     -56.843    -223.105
  C      -78.819     -55.105    -223.097
  O      -80.219     -54.908    -222.997
  C      -78.128     -55.118    -221.741
  O      -78.935     -55.798    -220.755
  C      -76.849     -55.914    -222.039
  N      -72.194     -56.078    -223.984
  C      -73.057     -57.102    -223.651
  N      -72.605     -58.363    -223.839
  N      -74.256     -56.914    -223.166
  C      -74.554     -55.607    -222.977
  C      -73.786     -54.502    -223.263
  C      -72.482     -54.725    -223.851
  O      -71.706     -53.860    -224.243
  N      -74.447     -53.342    -222.946
  C      -75.594     -53.748    -222.438
  N      -75.705     -55.114    -222.430
  O      -81.711     -55.879    -227.191
  O      -79.851     -54.188    -226.749
  H      -78.415     -55.913    -219.941
  H      -82.204     -55.074    -226.944
  H      -71.295     -56.283    -224.382
  H      -76.377     -53.096    -222.074
  H      -76.532     -56.513    -221.177
  H      -77.968     -54.108    -221.363
  H      -71.620     -58.569    -223.925
  H      -78.355     -54.342    -223.733
  H      -73.211     -59.110    -223.525
  H      -79.200     -57.239    -223.178
  H      -77.950     -55.870    -225.586
  H      -78.157     -57.633    -225.412
  P      -80.767     -53.405    -222.909
  C      -81.777     -53.331    -225.300
  O      -80.812     -52.807    -224.398
  O      -79.549     -52.622    -222.226
  O      -82.018     -53.244    -222.114
  H      -79.762     -52.423    -221.296
  H      -81.686     -52.838    -226.245
  H      -82.759     -53.169    -224.906
  H      -81.613     -54.381    -225.428

 6  7  8  9  10  11  12  13  14  15  26  29  33  34 0
 6-311+G(2d,p)
 ****
 36  38  39  40  41 0
 6-311+G(2d,p)
 ****
 1  2  3  4  5  16  17  18  19  20  21  22  23  24  25 0
 3-21G
 ****
 27  28  30  31  32  35  37  42  43  44  45  46  47 0
 3-21G
 ****
 48  49 0
 3-21G
 ****


