%nproc=1
%NoSave
%Mem=1900MB
#P OB98/GEN NMR

erre ene a

0 1
  C      274.844      -1.683      -7.178
  O      275.181      -0.314      -7.309
  H      275.665      -2.201      -6.675
  H      274.700      -2.126      -8.167
  H      273.935      -1.798      -6.581
  P      274.014       0.662      -7.809
  C      275.798       1.977      -9.213
  O      274.711       2.028      -8.296
  C      276.773       3.117      -8.931
  O      276.066       4.355      -8.716
  C      277.586       2.943      -7.659
  O      278.585       1.956      -7.783
  C      278.142       4.351      -7.485
  O      279.331       4.550      -8.259
  C      276.985       5.229      -8.017
  N      276.339       5.974      -6.952
  C      277.117       6.985      -6.372
  O      278.257       7.203      -6.785
  N      276.598       7.691      -5.318
  C      275.417       7.398      -4.865
  N      274.974       8.116      -3.797
  C      274.566       6.339      -5.447
  C      275.085       5.672      -6.477
  O      273.305       1.083      -6.439
  O      273.091       0.067      -8.818
  H      279.636       5.461      -8.064
  H      273.924       1.379      -5.752
  H      273.584       6.143      -5.040
  H      274.530       4.879      -6.965
  H      277.359       5.947      -8.759
  H      278.404       4.554      -6.443
  H      276.920       2.732      -6.810
  H      277.423       3.235      -9.808
  H      275.611       8.793      -3.396
  H      275.435       2.036     -10.245
  H      274.108       7.923      -3.313
  H      276.294       1.010      -9.089
  P      278.451       0.539      -7.048
  C      280.057       1.304      -5.182
  O      279.796       0.332      -6.191
  O      278.104      -0.613      -7.932
  O      277.368       0.825      -5.902
  H      277.618       1.518      -5.268
  H      280.972       1.063      -4.683
  H      279.255       1.308      -4.474
  H      280.140       2.271      -5.632

 6  7  8  9  10  11  12  13  14  15  16  26  30  31  32  33  35 0
 6-311+G(2d,p)
 ****
 37  38 0
 6-311+G(2d,p)
 ****
 1  2  3  4  5  17  18  19  20  21  22  23  24  25 0
 3-21G
 ****
 27  28  29  34  36  39  40  41  42  43  44  45  46 0
 3-21G
 ****


