%nproc=1
%NoSave
%Mem=1900MB
#P OB98/GEN NMR

erre ene a

0 1
  C     -222.464    -354.674      51.588
  O     -221.525    -355.716      51.425
  H     -223.426    -355.007      51.193
  H     -222.146    -353.787      51.037
  H     -222.584    -354.432      52.649
  P     -220.004    -355.464      51.868
  C     -217.809    -354.794      50.684
  O     -219.218    -354.956      50.563
  C     -217.243    -354.121      49.427
  O     -217.317    -355.077      48.342
  C     -218.040    -352.871      49.020
  O     -217.214    -351.719      48.846
  C     -218.860    -353.353      47.827
  O     -219.228    -352.333      46.923
  C     -217.984    -354.460      47.228
  N     -218.735    -355.450      46.457
  C     -218.307    -355.707      45.156
  O     -217.344    -355.177      44.613
  N     -219.046    -356.639      44.465
  C     -220.144    -357.301      44.929
  O     -220.761    -358.126      44.264
  C     -220.561    -356.964      46.299
  C     -219.854    -356.070      46.989
  O     -219.346    -356.591      52.592
  O     -220.078    -354.146      52.777
  H     -218.402    -351.889      46.638
  H     -219.980    -354.394      53.719
  H     -218.738    -356.845      43.531
  H     -221.438    -357.464      46.694
  H     -220.134    -355.796      48.002
  H     -217.228    -354.032      46.566
  H     -219.791    -353.798      48.206
  H     -218.723    -352.568      49.822
  H     -216.185    -353.891      49.596
  H     -217.367    -355.789      50.814
  H     -217.583    -354.183      51.567
  P     -216.886    -350.645      49.980
  C     -218.034    -348.473      50.926
  O     -218.015    -349.512      49.953
  O     -215.468    -350.180      50.046
  O     -217.202    -351.436      51.354
  H     -216.581    -351.080      52.021
  H     -218.861    -347.821      50.736
  H     -217.122    -347.917      50.871
  H     -218.133    -348.900      51.902

 6  7  8  9  10  11  12  13  14  15  16  26  31  32  33  34  35 0
 6-311+G(2d,p)
 ****
 36  37 0
 6-311+G(2d,p)
 ****
 1  2  3  4  5  17  18  19  20  21  22  23  24  25 0
 3-21G
 ****
 27  28  29  30  38  39  40  41  42  43  44  45 0
 3-21G
 ****


