%nproc=1
%NoSave
%Mem=1900MB
#P OB98/GEN NMR

erre ene a

0 1
  C     -427.396     201.686     855.282
  O     -428.261     201.472     854.180
  H     -427.333     200.759     855.858
  H     -427.802     202.468     855.930
  H     -426.391     201.960     854.941
  P     -428.412     202.636     853.081
  C     -428.178     200.860     851.220
  O     -428.942     201.940     851.744
  C     -428.168     200.911     849.696
  O     -427.640     202.182     849.239
  C     -427.295     199.848     849.053
  O     -427.923     198.588     849.072
  C     -427.102     200.443     847.665
  O     -428.243     200.179     846.826
  C     -426.988     201.949     847.980
  N     -425.599     202.426     848.007
  C     -424.899     202.337     846.806
  O     -425.374     201.877     845.769
  N     -423.605     202.794     846.844
  C     -422.928     203.207     847.958
  O     -421.742     203.519     847.959
  C     -423.714     203.239     849.207
  C     -424.990     202.855     849.174
  O     -427.220     203.522     852.909
  O     -429.689     203.465     853.587
  H     -428.275     199.206     846.708
  H     -429.395     204.301     853.988
  H     -423.071     202.737     845.991
  H     -423.222     203.570     850.103
  H     -425.593     202.881     850.075
  H     -427.532     202.535     847.226
  H     -426.224     200.026     847.154
  H     -426.320     199.811     849.552
  H     -429.211     200.832     849.343
  H     -428.633     199.915     851.556
  H     -427.155     200.916     851.625
  P     -427.106     197.293     849.563
  C     -429.398     196.146     849.681
  O     -428.040     196.002     849.318
  O     -426.509     197.396     850.927
  O     -425.959     197.122     848.449
  H     -425.084     197.196     848.875
  H     -429.920     195.235     849.477
  H     -429.836     196.942     849.116
  H     -429.466     196.370     850.725

 6  7  8  9  10  11  12  13  14  15  16  26  31  32  33  34  35 0
 6-311+G(2d,p)
 ****
 36  37 0
 6-311+G(2d,p)
 ****
 1  2  3  4  5  17  18  19  20  21  22  23  24  25 0
 3-21G
 ****
 27  28  29  30  38  39  40  41  42  43  44  45 0
 3-21G
 ****


