%nproc=1
%NoSave
%Mem=1900MB
#P OB98/GEN NMR

erre ene a

0 1
  C      268.625      79.863    -386.898
  O      268.523      80.278    -385.551
  H      268.522      80.725    -387.563
  H      269.612      79.413    -387.052
  H      267.857      79.116    -387.131
  P      267.089      80.809    -385.063
  C      268.212      83.150    -384.912
  O      267.090      82.393    -385.346
  C      267.908      84.649    -384.992
  O      267.758      85.023    -386.392
  C      266.617      85.052    -384.260
  O      266.823      86.315    -383.623
  C      265.609      85.198    -385.389
  O      264.543      86.080    -385.047
  C      266.494      85.695    -386.526
  N      264.630      87.807    -390.798
  C      265.233      88.339    -389.710
  N      265.710      87.706    -388.616
  C      265.549      86.375    -388.735
  C      264.944      85.684    -389.774
  C      264.462      86.461    -390.841
  N      263.804      85.931    -391.932
  N      264.931      84.325    -389.520
  C      265.522      84.201    -388.337
  N      265.904      85.413    -387.827
  O      267.205      80.708    -383.469
  O      265.908      80.060    -385.588
  H      264.033      86.286    -385.861
  H      267.061      79.786    -383.188
  H      265.353      89.424    -389.721
  H      265.685      83.268    -387.814
  H      266.664      86.780    -386.481
  H      265.179      84.216    -385.627
  H      266.307      84.315    -383.517
  H      268.776      85.204    -384.606
  H      269.070      82.910    -385.553
  H      263.439      86.565    -392.624
  H      263.614      84.937    -391.955
  H      268.455      82.876    -383.877
  P      267.267      86.280    -382.081
  C      264.900      86.853    -381.176
  O      265.977      85.925    -381.186
  O      267.557      87.817    -381.742
  O      268.466      85.434    -381.817
  H      268.421      87.909    -381.301
  H      264.119      86.486    -380.543
  H      264.525      86.975    -382.171
  H      265.245      87.796    -380.807

 6  7  8  9  10  11  12  13  14  15  25  28  32  33  34  35 0
 6-311+G(2d,p)
 ****
 36  39  40 0
 6-311+G(2d,p)
 ****
 1  2  3  4  5  16  17  18  19  20  21  22  23  24 0
 3-21G
 ****
 26  27  29  30  31  37  38  41  42  43  44  45  46  47 0
 3-21G
 ****
 48 0
 3-21G
 ****


