%nproc=1
%NoSave
%Mem=1900MB
#P OB98/GEN NMR

erre ene a

0 1
  C     -241.238     571.637     120.985
  O     -241.743     572.174     119.775
  H     -240.197     571.331     120.815
  H     -241.815     570.754     121.273
  H     -241.263     572.382     121.785
  P     -243.210     572.841     119.787
  C     -242.389     574.789     118.296
  O     -243.321     573.725     118.459
  C     -242.218     575.121     116.814
  O     -243.482     575.572     116.249
  C     -241.224     576.245     116.550
  O     -239.899     575.789     116.674
  C     -241.638     576.648     115.139
  O     -241.069     575.755     114.164
  C     -243.164     576.497     115.202
  N     -243.865     577.775     115.404
  C     -243.999     578.589     114.280
  O     -243.560     578.284     113.165
  N     -244.653     579.775     114.489
  C     -245.075     580.272     115.696
  O     -245.565     581.384     115.836
  C     -244.861     579.381     116.853
  C     -244.275     578.194     116.655
  O     -243.597     573.543     121.052
  O     -244.179     571.606     119.482
  H     -241.445     576.027     113.291
  H     -244.633     571.344     120.302
  H     -244.758     580.382     113.689
  H     -245.182     579.729     117.814
  H     -244.130     577.521     117.494
  H     -243.540     576.055     114.263
  H     -241.298     577.658     114.886
  H     -241.415     577.079     117.225
  H     -241.917     574.195     116.298
  H     -241.422     574.471     118.722
  H     -242.751     575.665     118.859
  P     -238.712     576.843     116.952
  C     -237.139     574.805     117.061
  O     -237.314     576.122     116.574
  O     -238.750     577.485     118.302
  O     -238.890     577.930     115.788
  H     -239.056     578.804     116.193
  H     -236.185     574.434     116.750
  H     -237.911     574.175     116.671
  H     -237.189     574.810     118.130

 6  7  8  9  10  11  12  13  14  15  16  26  31  32  33  34  35 0
 6-311+G(2d,p)
 ****
 36  37 0
 6-311+G(2d,p)
 ****
 1  2  3  4  5  17  18  19  20  21  22  23  24  25 0
 3-21G
 ****
 27  28  29  30  38  39  40  41  42  43  44  45 0
 3-21G
 ****


