%nproc=1
%NoSave
%Mem=1900MB
#P OB98/GEN NMR

erre ene a

0 1
  C      535.643      69.935     268.839
  O      534.571      70.325     269.674
  H      536.269      69.221     269.380
  H      536.249      70.810     268.580
  H      535.267      69.461     267.929
  P      533.411      71.190     268.985
  C      533.116      73.779     269.282
  O      533.949      72.704     268.870
  C      533.663      75.100     268.741
  O      534.925      75.423     269.359
  C      533.986      75.079     267.256
  O      532.827      75.086     266.446
  C      534.816      76.349     267.132
  O      533.995      77.512     266.976
  C      535.567      76.383     268.485
  N      536.984      76.125     268.324
  C      537.824      77.230     268.514
  O      537.343      78.326     268.811
  N      539.171      77.075     268.320
  C      539.635      75.923     267.941
  N      540.982      75.852     267.733
  C      538.787      74.735     267.734
  C      537.484      74.903     267.942
  O      532.314      71.281     270.146
  O      532.895      70.637     267.700
  H      534.587      78.282     267.095
  H      532.675      71.548     271.006
  H      539.232      73.798     267.431
  H      536.789      74.082     267.806
  H      535.447      77.365     268.962
  H      535.481      76.311     266.264
  H      534.629      74.222     267.020
  H      532.940      75.893     268.982
  H      541.516      76.703     267.835
  H      533.048      73.816     270.370
  H      541.443      75.034     267.362
  H      532.112      73.592     268.890
  P      532.917      74.908     264.862
  C      533.858      76.296     262.905
  O      533.866      76.090     264.316
  O      531.613      74.790     264.150
  O      533.867      73.625     264.695
  H      534.752      73.718     265.084
  H      534.520      77.100     262.658
  H      532.866      76.540     262.586
  H      534.182      75.403     262.412

 6  7  8  9  10  11  12  13  14  15  16  26  30  31  32  33  35 0
 6-311+G(2d,p)
 ****
 37  38 0
 6-311+G(2d,p)
 ****
 1  2  3  4  5  17  18  19  20  21  22  23  24  25 0
 3-21G
 ****
 27  28  29  34  36  39  40  41  42  43  44  45  46 0
 3-21G
 ****


