%nproc=1
%NoSave
%Mem=1900MB
#P OB98/GEN NMR

erre ene a

0 1
  C     -321.440      96.139      32.600
  O     -322.731      96.134      31.980
  P     -322.781      96.259      30.381
  C     -323.247      94.142      28.919
  O     -323.734      95.064      29.877
  C     -324.335      93.130      28.529
  O     -324.762      92.387      29.713
  C     -325.584      93.758      27.900
  O     -326.040      92.849      26.881
  C     -326.568      93.796      29.054
  O     -327.917      93.866      28.602
  C     -326.198      92.495      29.780
  N     -326.677      92.470      31.163
  C     -327.985      92.037      31.367
  O     -328.753      91.764      30.447
  N     -328.393      91.974      32.673
  C     -327.668      92.372      33.764
  O     -328.083      92.291      34.910
  C     -326.334      92.930      33.472
  C     -325.909      92.950      32.205
  O     -321.308      95.795      29.977
  O     -323.165      97.625      29.913
  H     -320.962      95.074      30.540
  H     -328.028      93.260      27.836
  H     -329.328      91.635      32.847
  H     -325.754      93.311      34.303
  H     -324.943      93.374      31.955
  H     -326.619      91.632      29.252
  H     -326.372      94.666      29.688
  H     -325.393      94.743      27.454
  H     -323.891      92.406      27.834
  H     -322.390      93.592      29.331
  H     -322.881      94.686      28.038
  P     -326.238      93.421      25.388
  C     -323.958      93.916      24.191
  O     -324.955      92.975      24.537
  O     -325.976      94.984      25.649
  O     -327.580      93.152      24.781
  H     -325.183      95.152      26.182
  H     -323.077      93.378      23.837
  H     -323.671      94.521      25.054
  H     -324.326      94.569      23.392
  H     -321.553      96.050      33.660
  H     -320.938      97.056      32.371
  H     -320.865      95.315      32.232

 3  4  5  6  7  8  9  10  11  12  13  24  28  29  30  31  32 0
 6-311+G(2d,p)
 ****
 33  34 0
 6-311+G(2d,p)
 ****
 1  2  14  15  16  17  18  19  20  21  22  23  25  26  27 0
 3-21G
 ****
 35  36  37  38  39  40  41  42  43  44  45 0
 3-21G
 ****


