%nproc=1
%NoSave
%Mem=1900MB
#P OB98/GEN NMR

erre ene a

0 1
  C       51.899     522.878     557.622
  O       51.746     524.282     557.762
  P       53.029     525.256     557.865
  C       52.846     526.659     555.696
  O       53.446     525.542     556.341
  C       53.056     526.568     554.190
  O       52.321     525.436     553.655
  C       52.568     527.779     553.399
  O       53.476     528.863     553.532
  C       52.448     527.179     552.005
  O       53.741     527.125     551.376
  C       51.938     525.753     552.305
  N       50.493     525.614     552.114
  C       50.032     525.687     550.800
  O       50.810     525.859     549.854
  N       48.682     525.535     550.563
  C       47.865     525.356     551.564
  N       46.551     525.146     551.273
  C       48.311     525.328     552.972
  C       49.628     525.456     553.166
  O       54.130     524.742     558.727
  O       52.428     526.656     558.333
  H       53.600     526.784     550.475
  H       52.373     526.757     559.322
  H       47.598     525.175     553.769
  H       50.039     525.428     554.172
  H       52.453     525.023     551.655
  H       51.778     527.758     551.341
  H       51.573     528.094     553.756
  H       54.135     526.395     553.997
  H       46.331     524.987     550.299
  H       53.313     527.569     556.078
  H       45.934     524.711     551.947
  H       51.771     526.675     555.948
  P       52.855     530.292     553.948
  C       53.930     530.538     556.301
  O       52.754     530.275     555.546
  O       51.338     530.197     553.448
  O       53.578     531.467     553.365
  H       51.231     530.673     552.602
  H       53.650     530.717     557.341
  H       54.449     531.419     555.910
  H       54.593     529.669     556.265
  H       50.935     522.417     557.572
  H       52.435     522.492     558.464
  H       52.443     522.666     556.725

 3  4  5  6  7  8  9  10  11  12  13  23  27  28  29  30  32 0
 6-311+G(2d,p)
 ****
 34  35 0
 6-311+G(2d,p)
 ****
 1  2  14  15  16  17  18  19  20  21  22  24  25  26 0
 3-21G
 ****
 31  33  36  37  38  39  40  41  42  43  44  45  46 0
 3-21G
 ****


