%nproc=1
%NoSave
%Mem=1900MB
#P OB98/GEN NMR

erre ene a

0 1
  C       77.198     350.622     117.077
  O       76.834     350.556     118.465
  P       75.343     350.887     118.968
  C       73.697     352.872     118.895
  O       75.046     352.448     118.720
  C       73.578     354.402     118.908
  O       74.056     354.945     120.156
  C       74.376     355.107     117.812
  O       73.689     355.031     116.570
  C       74.503     356.511     118.393
  O       73.303     357.263     118.152
  C       74.664     356.219     119.888
  N       78.330     358.958     122.181
  C       77.027     359.222     121.932
  N       76.113     358.446     121.308
  C       76.664     357.265     120.954
  C       77.978     356.862     121.140
  C       78.837     357.766     121.786
  N       80.165     357.502     122.028
  N       78.173     355.599     120.620
  C       76.998     355.239     120.144
  N       76.055     356.216     120.322
  O       75.052     350.427     120.361
  O       74.388     350.155     117.915
  H       73.505     358.199     118.332
  H       73.541     349.920     118.346
  H       76.673     360.192     122.270
  H       76.778     354.289     119.665
  H       74.130     356.957     120.504
  H       75.335     357.072     117.954
  H       75.373     354.656     117.721
  H       72.516     354.652     118.823
  H       73.329     352.465     119.846
  H       80.720     358.221     122.469
  H       80.557     356.633     121.696
  H       73.095     352.456     118.079
  P       74.455     354.497     115.264
  C       75.376     355.540     113.112
  O       74.928     355.784     114.432
  O       73.728     353.459     114.473
  O       75.835     353.919     115.836
  H       76.148     353.196     115.269
  H       76.410     355.180     113.134
  H       75.347     356.486     112.554
  H       74.739     354.816     112.607
  H       78.231     350.365     116.967
  H       77.037     351.615     116.713
  H       76.598     349.935     116.518

 3  4  5  6  7  8  9  10  11  12  22  25  29  30  31  32 0
 6-311+G(2d,p)
 ****
 33  36  37 0
 6-311+G(2d,p)
 ****
 1  2  13  14  15  16  17  18  19  20  21  23  24  26 0
 3-21G
 ****
 27  28  34  35  38  39  40  41  42  43  44  45  46  47  48 0
 3-21G
 ****


