%nproc=1
%NoSave
%Mem=1900MB
#P OB98/GEN NMR

erre ene a

0 1
  C      200.064     -72.098    -587.590
  O      199.628     -72.844    -588.706
  H      200.385     -71.112    -587.932
  H      200.912     -72.598    -587.113
  H      199.250     -71.973    -586.870
  P      199.086     -74.331    -588.426
  C      200.256     -76.636    -588.074
  O      200.408     -75.225    -588.226
  C      201.405     -77.375    -588.764
  O      201.324     -77.153    -590.194
  C      202.794     -76.914    -588.300
  O      203.629     -78.054    -588.123
  C      203.297     -76.045    -589.438
  O      204.722     -76.011    -589.504
  C      202.605     -76.678    -590.655
  N      202.456     -75.729    -591.758
  C      203.628     -75.332    -592.420
  O      204.718     -75.776    -592.052
  N      203.542     -74.415    -593.428
  C      202.394     -73.882    -593.723
  N      202.377     -72.955    -594.719
  C      201.141     -74.231    -593.026
  C      201.242     -75.154    -592.068
  O      198.534     -74.787    -589.859
  O      198.087     -74.446    -587.328
  H      204.971     -75.502    -590.311
  H      197.976     -75.599    -589.790
  H      200.213     -73.750    -593.296
  H      200.370     -75.474    -591.505
  H      203.168     -77.547    -591.025
  H      202.943     -75.020    -589.305
  H      202.762     -76.347    -587.367
  H      201.271     -78.449    -588.605
  H      203.256     -72.736    -595.167
  H      199.301     -76.937    -588.512
  H      201.545     -72.460    -595.009
  H      200.251     -76.880    -587.007
  P      204.045     -78.388    -586.605
  C      205.763     -77.488    -584.886
  O      205.308     -77.471    -586.229
  O      204.651     -79.868    -586.698
  O      202.904     -78.303    -585.643
  H      203.989     -80.532    -586.426
  H      206.604     -76.834    -584.786
  H      206.051     -78.483    -584.620
  H      204.977     -77.159    -584.239

 6  7  8  9  10  11  12  13  14  15  16  26  30  31  32  33  35 0
 6-311+G(2d,p)
 ****
 37  38 0
 6-311+G(2d,p)
 ****
 1  2  3  4  5  17  18  19  20  21  22  23  24  25 0
 3-21G
 ****
 27  28  29  34  36  39  40  41  42  43  44  45  46 0
 3-21G
 ****


