%nproc=1
%NoSave
%Mem=1900MB
#P OB98/GEN NMR

erre ene a

0 1
  C     -304.271      28.539     147.639
  O     -303.422      27.757     148.455
  H     -304.302      28.096     146.641
  H     -303.892      29.561     147.558
  H     -305.287      28.549     148.049
  P     -303.115      28.259     149.944
  C     -302.466      30.530     151.000
  O     -302.530      29.745     149.816
  C     -302.186      32.003     150.660
  O     -300.827      32.119     150.151
  C     -303.129      32.583     149.591
  O     -303.268      33.987     149.857
  C     -302.319      32.359     148.328
  O     -302.826      33.103     147.248
  C     -300.913      32.707     148.834
  N     -299.864      32.225     147.949
  C     -298.916      33.166     147.537
  O     -299.006      34.338     147.912
  N     -297.916      32.770     146.687
  C     -297.902      31.555     146.235
  N     -296.890      31.230     145.383
  C     -298.916      30.541     146.596
  C     -299.857      30.940     147.452
  O     -302.299      27.336     150.790
  O     -304.569      28.497     150.577
  H     -303.786      32.931     147.123
  H     -304.780      27.774     151.197
  H     -298.872      29.552     146.174
  H     -300.646      30.268     147.779
  H     -300.800      33.793     148.950
  H     -302.360      31.308     148.027
  H     -304.107      32.103     149.577
  H     -302.229      32.587     151.586
  H     -296.222      31.958     145.150
  H     -301.655      30.132     151.615
  H     -296.786      30.323     144.952
  H     -303.406      30.453     151.554
  P     -304.402      34.578     150.823
  C     -306.981      34.698     150.936
  O     -305.842      34.356     150.148
  O     -304.149      35.984     151.266
  O     -304.428      33.594     152.088
  H     -304.691      34.099     152.881
  H     -307.873      34.505     150.377
  H     -306.938      35.736     151.193
  H     -306.986      34.109     151.830

 6  7  8  9  10  11  12  13  14  15  16  26  30  31  32  33  35 0
 6-311+G(2d,p)
 ****
 37  38 0
 6-311+G(2d,p)
 ****
 1  2  3  4  5  17  18  19  20  21  22  23  24  25 0
 3-21G
 ****
 27  28  29  34  36  39  40  41  42  43  44  45  46 0
 3-21G
 ****


