%nproc=1
%NoSave
%Mem=1900MB
#P OB98/GEN NMR

erre ene a

0 1
  C       59.343     164.194      25.953
  O       58.522     163.082      26.326
  P       57.012     163.416      26.772
  C       55.881     164.726      28.718
  O       57.093     164.296      28.110
  C       56.045     164.845      30.230
  O       56.132     163.546      30.847
  C       57.307     165.578      30.669
  O       57.153     166.988      30.576
  C       57.412     165.139      32.122
  O       56.557     165.955      32.944
  C       56.893     163.693      32.074
  N       60.471     161.425      34.858
  C       59.568     162.412      35.208
  N       59.611     162.834      36.491
  N       58.707     162.935      34.378
  C       58.759     162.395      33.137
  C       59.607     161.418      32.667
  C       60.580     160.868      33.592
  O       61.423     160.017      33.321
  N       59.356     161.122      31.351
  C       58.339     161.901      31.031
  N       57.949     162.701      32.078
  O       56.473     162.002      27.292
  O       56.166     163.972      25.676
  H       55.659     165.898      32.564
  H       55.502     161.957      27.193
  H       61.121     161.063      35.536
  H       57.850     161.916      30.066
  H       56.212     163.477      32.905
  H       58.427     165.242      32.521
  H       60.198     162.426      37.202
  H       58.181     165.223      30.106
  H       58.931     163.532      36.774
  H       55.157     165.359      30.628
  H       55.082     164.015      28.492
  H       55.585     165.684      28.278
  P       57.839     167.720      29.324
  C       60.366     168.258      29.077
  O       59.382     167.285      29.366
  O       57.854     169.258      29.765
  O       57.133     167.515      28.023
  H       57.817     169.834      28.979
  H       60.137     169.211      29.562
  H       60.433     168.404      27.993
  H       61.331     167.902      29.446
  H       60.316     163.843      25.679
  H       59.427     164.869      26.779
  H       58.900     164.701      25.122

 3  4  5  6  7  8  9  10  11  12  23  26  30  31  33  0
 6-311+G(2d,p)
 ****
 35  36  37  38 0
 6-311+G(2d,p)
 ****
 1  2  13  14  15  16  17  18  19  20  21  22  24  25  27  28  29 0
 3-21G
 ****
 32  34  39  40  41  42  43  44  45  46  47  48  49 0
 3-21G
 ****


