%nproc=1
%NoSave
%Mem=1900MB
#P OB98/GEN NMR

erre ene a

0 1
  C      -23.455     476.712     -56.316
  O      -23.513     476.967     -57.703
  H      -22.726     477.392     -55.866
  H      -23.139     475.684     -56.124
  H      -24.430     476.895     -55.855
  P      -24.430     476.022     -58.615
  C      -25.677     478.091     -59.534
  O      -25.786     476.829     -58.896
  C      -27.064     478.696     -59.789
  O      -27.747     477.896     -60.796
  C      -27.966     478.727     -58.545
  O      -28.843     479.853     -58.680
  C      -28.732     477.428     -58.698
  O      -29.853     477.388     -57.849
  C      -28.981     477.430     -60.209
  N      -29.372     476.123     -60.713
  C      -30.646     476.034     -61.277
  O      -31.378     477.024     -61.318
  N      -31.072     474.821     -61.754
  C      -30.320     473.773     -61.616
  N      -30.807     472.599     -62.095
  C      -28.988     473.815     -60.972
  C      -28.580     475.010     -60.552
  O      -24.622     474.629     -58.117
  O      -23.700     476.034     -60.041
  H      -30.357     476.553     -57.975
  H      -23.230     475.192     -60.179
  H      -28.409     472.911     -60.864
  H      -27.620     475.140     -60.063
  H      -29.763     478.154     -60.472
  H      -28.101     476.575     -58.421
  H      -27.402     478.799     -57.613
  H      -26.940     479.699     -60.215
  H      -31.728     472.616     -62.520
  H      -25.157     477.935     -60.486
  H      -30.321     471.718     -62.026
  H      -25.087     478.778     -58.920
  P      -29.005     480.973     -57.546
  C      -28.851     482.906     -59.248
  O      -28.333     482.338     -58.048
  O      -28.551     480.534     -56.189
  O      -30.570     481.317     -57.520
  H      -30.825     481.577     -56.616
  H      -28.321     483.808     -59.473
  H      -29.890     483.125     -59.119
  H      -28.730     482.211     -60.053

 6  7  8  9  10  11  12  13  14  15  16  26  30  31  32  33  35 0
 6-311+G(2d,p)
 ****
 37  38 0
 6-311+G(2d,p)
 ****
 1  2  3  4  5  17  18  19  20  21  22  23  24  25 0
 3-21G
 ****
 27  28  29  34  36  39  40  41  42  43  44  45  46 0
 3-21G
 ****


