%nproc=1
%NoSave
%Mem=1900MB
#P OB98/GEN NMR

erre ene a

0 1
  C      311.061     176.701     168.856
  O      311.390     175.391     169.270
  H      310.530     176.643     167.903
  H      311.968     177.297     168.718
  H      310.411     177.175     169.595
  P      312.230     175.259     170.630
  C      309.890     175.094     171.698
  O      311.189     175.667     171.784
  C      309.018     175.573     172.859
  O      309.723     175.316     174.102
  C      308.701     177.072     172.810
  O      307.378     177.286     173.304
  C      309.701     177.668     173.786
  O      309.278     178.929     174.293
  C      309.798     176.555     174.827
  N      311.973     178.647     178.926
  C      310.690     178.597     178.509
  N      310.193     177.993     177.410
  C      311.167     177.349     176.742
  C      312.515     177.309     177.042
  C      312.917     178.011     178.193
  N      314.226     178.098     178.607
  N      313.201     176.583     176.088
  C      312.279     176.182     175.233
  N      311.038     176.640     175.578
  O      313.529     175.989     170.661
  O      312.331     173.671     170.804
  H      309.045     179.506     173.535
  H      311.468     173.239     170.656
  H      309.968     179.116     179.136
  H      312.461     175.580     174.349
  H      308.975     176.584     175.553
  H      310.666     177.815     173.286
  H      308.799     177.499     171.812
  H      308.102     174.974     172.883
  H      309.957     174.001     171.718
  H      314.424     178.620     179.447
  H      314.945     177.627     178.081
  H      309.451     175.398     170.741
  P      306.141     177.154     172.296
  C      305.860     174.629     172.724
  O      306.077     175.643     171.753
  O      306.049     178.205     171.242
  O      304.875     177.218     173.279
  H      304.182     177.774     172.872
  H      305.837     173.673     172.243
  H      304.927     174.802     173.218
  H      306.652     174.648     173.443

 6  7  8  9  10  11  12  13  14  15  25  28  32  33  34  35 0
 6-311+G(2d,p)
 ****
 36  39  40 0
 6-311+G(2d,p)
 ****
 1  2  3  4  5  16  17  18  19  20  21  22  23  24 0
 3-21G
 ****
 26  27  29  30  31  37  38  41  42  43  44  45  46  47 0
 3-21G
 ****
 48 0
 3-21G
 ****


