%nproc=1
%NoSave
%Mem=1900MB
#P OB98/GEN NMR

erre ene a

0 1
  C      -30.943     426.079    -291.233
  O      -31.283     425.307    -290.097
  H      -31.807     426.684    -291.517
  H      -30.681     425.423    -292.068
  H      -30.105     426.744    -291.001
  P      -30.146     424.324    -289.534
  C      -31.625     422.324    -290.284
  O      -30.340     422.930    -290.309
  C      -31.956     421.717    -291.643
  O      -31.836     422.710    -292.691
  C      -31.064     420.549    -292.046
  O      -31.506     419.339    -291.458
  C      -31.227     420.560    -293.559
  O      -32.447     419.907    -293.970
  C      -31.283     422.069    -293.868
  N      -28.336     423.688    -297.634
  C      -29.628     423.202    -297.659
  N      -30.203     423.080    -298.880
  N      -30.296     422.856    -296.590
  C      -29.583     423.000    -295.447
  C      -28.301     423.486    -295.290
  C      -27.589     423.895    -296.485
  O      -26.467     424.392    -296.522
  N      -27.935     423.498    -293.969
  C      -28.970     422.985    -293.332
  N      -29.990     422.654    -294.192
  O      -30.647     423.988    -288.049
  O      -28.761     424.879    -289.537
  H      -32.564     420.025    -294.926
  H      -29.869     423.830    -287.479
  H      -27.882     423.955    -298.493
  H      -29.031     422.836    -292.265
  H      -31.950     422.292    -294.708
  H      -30.413     420.035    -294.061
  H      -29.646     423.011    -299.722
  H      -30.014     420.755    -291.791
  H      -31.143     422.702    -298.907
  H      -33.010     421.405    -291.614
  H      -32.372     423.088    -290.039
  H      -31.642     421.547    -289.511
  P      -30.551     418.647    -290.367
  C      -29.668     417.388    -292.470
  O      -29.374     417.928    -291.187
  O      -31.430     417.415    -289.837
  O      -30.116     419.550    -289.260
  H      -31.072     417.094    -288.987
  H      -28.785     416.947    -292.882
  H      -30.011     418.169    -293.116
  H      -30.429     416.642    -292.377

 6  7  8  9  10  11  12  13  14  15  26  29  33  34 0
 6-311+G(2d,p)
 ****
 36  38  39  40  41 0
 6-311+G(2d,p)
 ****
 1  2  3  4  5  16  17  18  19  20  21  22  23  24  25 0
 3-21G
 ****
 27  28  30  31  32  35  37  42  43  44  45  46  47 0
 3-21G
 ****
 48  49 0
 3-21G
 ****


