%nproc=1
%NoSave
%Mem=1900MB
#P OB98/GEN NMR

erre ene a

0 1
  C      381.400    1534.860    -676.918
  O      379.981    1534.737    -676.939
  P      378.963    1535.910    -677.298
  C      378.547    1535.065    -679.737
  O      378.979    1536.108    -678.880
  C      378.771    1535.373    -681.222
  O      380.164    1535.719    -681.462
  C      378.486    1534.136    -682.095
  O      377.159    1533.836    -682.468
  C      379.458    1534.234    -683.260
  O      378.885    1534.878    -684.395
  C      380.599    1535.109    -682.684
  N      385.565    1534.485    -683.794
  C      384.649    1535.386    -684.327
  N      385.094    1536.200    -685.316
  N      383.412    1535.471    -683.925
  C      383.054    1534.540    -683.018
  C      383.864    1533.592    -682.420
  C      385.258    1533.535    -682.813
  O      386.104    1532.778    -682.371
  N      383.167    1532.817    -681.557
  C      381.930    1533.272    -681.603
  N      381.818    1534.337    -682.488
  O      379.075    1537.135    -676.445
  O      377.521    1535.246    -677.007
  H      377.994    1534.546    -684.528
  H      376.945    1535.969    -676.692
  H      386.510    1534.491    -684.112
  H      381.087    1532.896    -681.043
  H      380.847    1535.924    -683.368
  H      379.770    1533.238    -683.578
  H      386.005    1536.103    -685.723
  H      378.825    1533.267    -681.503
  H      384.390    1536.704    -685.839
  H      378.206    1536.255    -681.539
  H      377.473    1534.910    -679.542
  H      379.051    1534.127    -679.472
  P      376.093    1532.996    -681.616
  C      374.493    1534.980    -681.235
  O      375.329    1534.003    -680.640
  O      376.985    1532.125    -680.613
  O      375.176    1532.122    -682.424
  H      376.458    1531.405    -680.231
  H      374.285    1535.786    -680.514
  H      373.543    1534.497    -681.515
  H      374.964    1535.404    -682.146
  H      381.835    1533.921    -676.645
  H      381.683    1535.605    -676.204
  H      381.748    1535.146    -677.889

 3  4  5  6  7  8  9  10  11  12  23  26  30  31 0
 6-311+G(2d,p)
 ****
 33  35  36  37  38 0
 6-311+G(2d,p)
 ****
 1  2  13  14  15  16  17  18  19  20  21  22  24  25 0
 3-21G
 ****
 27  28  29  32  34  39  40  41  42  43  44  45  46  47  48  49 0
 3-21G
 ****


