%nproc=1
%NoSave
%Mem=1900MB
#P OB98/GEN NMR

erre ene a

0 1
  C      733.015     397.714     638.814
  O      731.681     397.335     638.464
  P      731.097     395.943     639.009
  C      729.350     395.064     637.330
  O      729.573     395.814     638.522
  C      728.022     395.458     636.682
  O      726.965     395.507     637.657
  C      728.048     396.837     636.046
  O      728.770     396.810     634.825
  C      726.565     397.139     635.913
  O      726.012     396.513     634.736
  C      725.988     396.473     637.178
  N      725.641     397.432     638.222
  C      724.478     398.189     637.997
  O      723.842     398.050     636.947
  N      724.083     399.089     638.951
  C      724.785     399.221     640.037
  N      724.343     400.132     640.951
  C      726.017     398.454     640.307
  C      726.382     397.585     639.360
  O      731.334     395.673     640.457
  O      731.849     394.860     638.087
  H      725.039     396.492     634.871
  H      731.956     394.036     638.600
  H      726.562     398.601     641.230
  H      727.280     396.987     639.484
  H      725.081     395.899     636.936
  H      726.370     398.204     635.829
  H      728.507     397.558     636.739
  H      727.769     394.703     635.932
  H      723.502     400.650     640.740
  H      729.350     394.000     637.559
  H      724.788     400.271     641.850
  H      730.192     395.241     636.642
  P      730.096     397.714     634.726
  C      729.314     398.328     632.343
  O      730.396     397.979     633.173
  O      731.258     396.679     635.150
  O      730.106     398.921     635.608
  H      731.955     397.157     635.632
  H      729.710     398.778     631.423
  H      728.648     399.048     632.817
  H      728.757     397.430     632.073
  H      733.244     398.661     638.372
  H      733.701     396.977     638.454
  H      733.097     397.788     639.878

 3  4  5  6  7  8  9  10  11  12  13  23  27  28  29  30  32 0
 6-311+G(2d,p)
 ****
 34  35 0
 6-311+G(2d,p)
 ****
 1  2  14  15  16  17  18  19  20  21  22  24  25  26 0
 3-21G
 ****
 31  33  36  37  38  39  40  41  42  43  44  45  46 0
 3-21G
 ****


