%nproc=1
%NoSave
%Mem=1900MB
#P OB98/GEN NMR

erre ene a

0 1
  C     -670.480     515.825     187.708
  O     -670.287     516.197     186.362
  P     -670.304     515.148     185.152
  C     -667.717     514.883     185.055
  O     -668.975     514.243     185.243
  C     -666.828     514.162     184.010
  O     -666.686     512.780     184.388
  C     -667.508     514.175     182.644
  O     -667.379     515.306     181.801
  C     -667.120     512.847     182.005
  O     -666.030     512.963     181.091
  C     -666.743     511.972     183.201
  N     -668.164     507.339     181.708
  C     -667.008     508.030     181.399
  N     -666.235     507.493     180.441
  N     -666.666     509.158     181.983
  C     -667.587     509.611     182.862
  C     -668.765     509.016     183.252
  C     -669.116     507.749     182.639
  O     -670.168     507.146     182.814
  N     -669.485     509.804     184.105
  C     -668.772     510.907     184.202
  N     -667.639     510.851     183.439
  O     -670.721     515.669     183.807
  O     -671.445     514.116     185.648
  H     -665.229     513.207     181.595
  H     -671.910     513.799     184.850
  H     -668.429     506.524     181.163
  H     -669.046     511.785     184.795
  H     -665.731     511.558     183.066
  H     -667.962     512.443     181.428
  H     -666.545     506.720     179.871
  H     -668.593     514.099     182.822
  H     -665.473     508.059     180.075
  H     -665.818     514.573     184.016
  H     -667.218     514.930     186.026
  H     -667.881     515.910     184.723
  P     -668.452     515.788     180.709
  C     -667.817     514.417     178.637
  O     -668.735     514.572     179.702
  O     -667.621     516.820     179.785
  O     -669.667     516.441     181.269
  H     -668.249     517.430     179.330
  H     -668.258     513.789     177.872
  H     -666.901     513.935     179.017
  H     -667.556     515.385     178.202
  H     -670.426     516.694     188.330
  H     -669.720     515.131     187.999
  H     -671.441     515.368     187.817

 3  4  5  6  7  8  9  10  11  12  23  26  30  31 0
 6-311+G(2d,p)
 ****
 33  35  36  37  38 0
 6-311+G(2d,p)
 ****
 1  2  13  14  15  16  17  18  19  20  21  22  24  25 0
 3-21G
 ****
 27  28  29  32  34  39  40  41  42  43  44  45  46  47  48  49 0
 3-21G
 ****


