%nproc=1
%NoSave
%Mem=1900MB
#P OB98/GEN NMR

erre ene a

0 1
  C      -29.299     327.911     -36.859
  O      -28.250     327.071     -37.298
  H      -29.025     328.336     -35.889
  H      -30.223     327.337     -36.744
  H      -29.454     328.725     -37.573
  P      -28.508     326.256     -38.658
  C      -30.641     324.918     -39.343
  O      -29.760     325.314     -38.302
  C      -31.946     324.402     -38.749
  O      -32.497     325.366     -37.820
  C      -33.053     324.160     -39.777
  O      -32.888     322.956     -40.505
  C      -34.261     324.100     -38.851
  O      -34.268     322.844     -38.154
  C      -33.949     325.273     -37.893
  N      -34.522     326.543     -38.341
  C      -35.894     326.729     -38.117
  O      -36.562     325.855     -37.573
  N      -36.478     327.891     -38.550
  C      -35.764     328.804     -39.135
  N      -36.405     329.934     -39.544
  C      -34.322     328.657     -39.381
  C      -33.767     327.520     -38.966
  O      -27.289     325.219     -38.704
  O      -28.669     327.079     -39.893
  H      -35.011     322.877     -37.524
  H      -27.432     324.564     -39.433
  H      -33.766     329.439     -39.887
  H      -32.709     327.338     -39.113
  H      -34.314     325.059     -36.881
  H      -35.211     324.182     -39.376
  H      -33.167     325.014     -40.455
  H      -31.723     323.491     -38.186
  H      -37.409     329.977     -39.416
  H      -30.151     324.128     -39.927
  H      -35.970     330.627     -40.139
  H      -30.847     325.766     -40.002
  P      -33.614     322.858     -41.941
  C      -36.051     323.219     -42.771
  O      -35.189     322.972     -41.672
  O      -33.417     321.326     -42.336
  O      -33.070     323.787     -42.980
  H      -33.308     321.224     -43.302
  H      -37.063     323.267     -42.427
  H      -35.954     322.428     -43.485
  H      -35.786     324.148     -43.230

 6  7  8  9  10  11  12  13  14  15  16  26  30  31  32  33  35 0
 6-311+G(2d,p)
 ****
 37  38 0
 6-311+G(2d,p)
 ****
 1  2  3  4  5  17  18  19  20  21  22  23  24  25 0
 3-21G
 ****
 27  28  29  34  36  39  40  41  42  43  44  45  46 0
 3-21G
 ****


