%nproc=1
%NoSave
%Mem=1900MB
#P OB98/GEN NMR

erre ene a

0 1
  C     -218.912    -169.774    -100.191
  O     -219.470    -169.209    -101.376
  P     -220.997    -168.725    -101.346
  C     -220.213    -166.519    -102.432
  O     -221.186    -167.557    -102.432
  C     -220.374    -165.627    -103.674
  O     -220.079    -166.415    -104.859
  C     -221.784    -165.065    -103.888
  O     -222.114    -163.819    -103.281
  C     -221.783    -164.827    -105.398
  O     -221.161    -163.561    -105.691
  C     -220.918    -165.960    -105.941
  N     -224.173    -167.414    -109.613
  C     -223.562    -166.235    -109.363
  N     -222.710    -165.931    -108.362
  C     -222.493    -166.998    -107.578
  C     -223.041    -168.263    -107.712
  C     -223.924    -168.458    -108.788
  N     -224.555    -169.655    -109.038
  N     -222.590    -169.100    -106.712
  C     -221.798    -168.344    -105.976
  N     -221.695    -167.071    -106.466
  O     -221.568    -168.443     -99.996
  O     -221.762    -169.955    -102.038
  H     -221.587    -162.905    -105.108
  H     -222.621    -170.085    -101.591
  H     -223.790    -165.428    -110.054
  H     -221.282    -168.675    -105.087
  H     -220.255    -165.629    -106.749
  H     -222.795    -164.782    -105.813
  H     -222.543    -165.811    -103.632
  H     -219.648    -164.806    -103.623
  H     -219.212    -166.956    -102.420
  H     -225.208    -169.697    -109.804
  H     -224.427    -170.425    -108.398
  H     -220.325    -165.964    -101.500
  P     -222.987    -163.750    -101.939
  C     -221.658    -161.874    -100.689
  O     -222.819    -162.252    -101.395
  O     -222.691    -164.811    -100.937
  O     -224.484    -163.765    -102.498
  H     -224.741    -162.964    -102.985
  H     -221.643    -160.784    -100.599
  H     -220.759    -162.196    -101.217
  H     -221.678    -162.311     -99.687
  H     -217.893    -170.045    -100.371
  H     -219.469    -170.645     -99.914
  H     -218.956    -169.056     -99.399

 3  4  5  6  7  8  9  10  11  12  22  25  29  30  31  32 0
 6-311+G(2d,p)
 ****
 33  36  37 0
 6-311+G(2d,p)
 ****
 1  2  13  14  15  16  17  18  19  20  21  23  24  26 0
 3-21G
 ****
 27  28  34  35  38  39  40  41  42  43  44  45  46  47  48 0
 3-21G
 ****


