%nproc=1
%NoSave
%Mem=1900MB
#P OB98/GEN NMR

erre ene a

0 1
  C     -293.418    -711.324     -78.193
  O     -294.353    -710.385     -78.688
  H     -293.850    -712.325     -78.280
  H     -293.208    -711.128     -77.139
  H     -292.492    -711.292     -78.772
  P     -293.909    -708.851     -78.816
  C     -294.049    -709.023     -81.386
  O     -293.248    -708.676     -80.264
  C     -293.745    -708.084     -82.550
  O     -294.198    -706.747     -82.243
  C     -292.260    -707.957     -82.867
  O     -291.788    -709.093     -83.566
  C     -292.248    -706.665     -83.669
  O     -292.636    -706.901     -85.030
  C     -293.315    -705.829     -82.927
  N     -292.732    -704.862     -81.996
  C     -292.247    -703.682     -82.549
  O     -292.259    -703.445     -83.759
  N     -291.711    -702.786     -81.665
  C     -291.517    -702.995     -80.331
  O     -290.949    -702.191     -79.597
  C     -292.025    -704.269     -79.805
  C     -292.602    -705.128     -80.647
  O     -293.102    -708.313     -77.683
  O     -295.302    -708.069     -78.963
  H     -292.049    -707.608     -85.365
  H     -295.510    -707.621     -78.122
  H     -291.341    -701.930     -82.049
  H     -291.904    -704.466     -78.752
  H     -292.979    -706.075     -80.279
  H     -293.933    -705.277     -83.648
  H     -291.263    -706.203     -83.692
  H     -291.691    -707.805     -81.945
  H     -294.302    -708.436     -83.430
  H     -295.104    -708.928     -81.108
  H     -293.845    -710.064     -81.661
  P     -290.258    -709.536     -83.421
  C     -290.925    -711.678     -82.175
  O     -290.141    -710.491     -82.141
  O     -289.262    -708.422     -83.472
  O     -290.037    -710.543     -84.645
  H     -289.343    -710.195     -85.232
  H     -290.769    -712.235     -81.275
  H     -290.636    -712.272     -83.017
  H     -291.960    -711.420     -82.259

 6  7  8  9  10  11  12  13  14  15  16  26  31  32  33  34  35 0
 6-311+G(2d,p)
 ****
 36  37 0
 6-311+G(2d,p)
 ****
 1  2  3  4  5  17  18  19  20  21  22  23  24  25 0
 3-21G
 ****
 27  28  29  30  38  39  40  41  42  43  44  45 0
 3-21G
 ****


