%nproc=1
%NoSave
%Mem=1900MB
#P OB98/GEN NMR

erre ene a

0 1
  C       82.604    -420.095     -67.272
  O       82.671    -418.696     -67.026
  P       83.666    -417.815     -67.925
  C       82.127    -418.113     -69.990
  O       83.434    -418.259     -69.449
  C       82.179    -417.706     -71.462
  O       82.545    -416.301     -71.552
  C       83.192    -418.492     -72.303
  O       82.648    -418.606     -73.624
  C       84.395    -417.570     -72.340
  O       85.266    -417.863     -73.433
  C       83.701    -416.213     -72.416
  N       85.305    -411.473     -73.470
  C       84.409    -412.278     -74.078
  N       84.031    -413.527     -73.740
  C       84.693    -413.939     -72.643
  C       85.660    -413.250     -71.937
  C       85.966    -411.952     -72.386
  N       86.875    -411.131     -71.761
  N       86.130    -414.011     -70.886
  C       85.460    -415.141     -70.960
  N       84.561    -415.131     -71.991
  O       85.100    -418.433     -67.567
  O       83.624    -416.351     -67.665
  H       85.553    -418.790     -73.355
  H       85.625    -417.782     -67.065
  H       83.922    -411.855     -74.955
  H       85.585    -415.988     -70.299
  H       83.346    -415.987     -73.429
  H       84.975    -417.676     -71.412
  H       83.430    -419.484     -71.906
  H       81.172    -417.805     -71.882
  H       81.602    -417.331     -69.430
  H       86.936    -410.170     -72.057
  H       87.229    -411.402     -70.846
  H       81.577    -419.052     -69.876
  P       83.120    -419.868     -74.498
  C       80.853    -421.057     -74.100
  O       82.266    -421.120     -74.002
  O       84.593    -420.165     -73.944
  O       83.127    -419.618     -75.969
  H       85.131    -420.585     -74.642
  H       80.469    -422.057     -74.302
  H       80.529    -420.382     -74.896
  H       80.445    -420.703     -73.144
  H       81.903    -420.542     -66.599
  H       83.570    -420.530     -67.122
  H       82.289    -420.265     -68.280

 3  4  5  6  7  8  9  10  11  12  22  25  29  30  31  32 0
 6-311+G(2d,p)
 ****
 33  36  37 0
 6-311+G(2d,p)
 ****
 1  2  13  14  15  16  17  18  19  20  21  23  24  26 0
 3-21G
 ****
 27  28  34  35  38  39  40  41  42  43  44  45  46  47  48 0
 3-21G
 ****


