%nproc=1
%NoSave
%Mem=1900MB
#P OB98/GEN NMR

erre ene a

0 1
  C      -22.542      32.064     -32.817
  O      -23.847      32.244     -33.323
  H      -21.844      32.646     -33.425
  H      -22.260      31.010     -32.871
  H      -22.484      32.413     -31.782
  P      -25.030      31.466     -32.569
  C      -26.806      33.295     -33.050
  O      -26.398      31.951     -33.263
  C      -27.790      33.732     -34.135
  O      -27.085      33.814     -35.405
  C      -28.973      32.771     -34.324
  O      -30.149      33.537     -34.602
  C      -28.586      31.991     -35.568
  O      -29.717      31.432     -36.226
  C      -27.861      33.072     -36.365
  N      -27.953      30.754     -40.829
  C      -28.984      31.242     -40.051
  N      -30.237      31.086     -40.531
  N      -28.804      31.829     -38.898
  C      -27.499      31.940     -38.551
  C      -26.390      31.490     -39.225
  C      -26.604      30.821     -40.491
  O      -25.733      30.347     -41.214
  N      -25.242      31.763     -38.524
  C      -25.657      32.378     -37.431
  N      -27.019      32.511     -37.405
  O      -25.080      32.167     -31.131
  O      -24.867      29.987     -32.469
  H      -30.309      32.169     -36.486
  H      -25.383      31.539     -30.448
  H      -28.148      30.299     -41.704
  H      -25.021      32.741     -36.635
  H      -28.556      33.765     -36.857
  H      -27.903      31.175     -35.305
  H      -30.450      30.673     -41.426
  H      -29.151      32.123     -33.463
  H      -31.008      31.449     -39.982
  H      -28.139      34.745     -33.904
  H      -25.924      33.944     -33.076
  H      -27.280      33.374     -32.067
  P      -31.294      33.573     -33.480
  C      -32.141      36.011     -33.753
  O      -32.418      34.629     -33.925
  O      -30.567      34.299     -32.251
  O      -31.799      32.224     -33.089
  H      -30.387      33.651     -31.546
  H      -32.977      36.587     -34.092
  H      -31.273      36.274     -34.320
  H      -31.965      36.213     -32.717

 6  7  8  9  10  11  12  13  14  15  26  29  33  34 0
 6-311+G(2d,p)
 ****
 36  38  39  40  41 0
 6-311+G(2d,p)
 ****
 1  2  3  4  5  16  17  18  19  20  21  22  23  24  25 0
 3-21G
 ****
 27  28  30  31  32  35  37  42  43  44  45  46  47 0
 3-21G
 ****
 48  49 0
 3-21G
 ****


