%nproc=1
%NoSave
%Mem=1900MB
#P OB98/GEN NMR

erre ene a

0 1
  C       40.763     -89.263    -169.063
  O       41.124     -90.553    -169.513
  H       39.723     -89.072    -169.339
  H       41.394     -88.508    -169.537
  H       40.854     -89.190    -167.974
  P       42.536     -91.167    -169.061
  C       41.285     -92.737    -167.441
  O       42.326     -91.781    -167.594
  C       41.856     -94.049    -166.908
  O       42.720     -93.798    -165.778
  C       40.801     -95.032    -166.411
  O       40.142     -95.662    -167.496
  C       41.654     -95.958    -165.554
  O       42.348     -96.913    -166.368
  C       42.645     -94.955    -164.912
  N       42.273     -94.564    -163.552
  C       42.658     -95.429    -162.531
  O       43.248     -96.493    -162.738
  N       42.325     -95.041    -161.258
  C       41.591     -93.938    -160.926
  O       41.274     -93.663    -159.769
  C       41.178     -93.079    -162.046
  C       41.531     -93.427    -163.288
  O       43.713     -90.256    -169.198
  O       42.689     -92.473    -169.976
  H       41.691     -97.282    -166.990
  H       43.286     -92.281    -170.726
  H       42.588     -95.660    -160.507
  H       40.587     -92.198    -161.819
  H       41.234     -92.806    -164.125
  H       43.654     -95.388    -164.879
  H       41.066     -96.525    -164.830
  H       40.079     -94.517    -165.761
  H       42.465     -94.506    -167.704
  H       40.819     -92.910    -168.420
  H       40.533     -92.334    -166.752
  P       38.759     -96.438    -167.274
  C       37.167     -94.640    -168.181
  O       37.618     -95.330    -167.022
  O       38.802     -97.534    -166.260
  O       38.397     -97.006    -168.728
  H       38.557     -97.970    -168.757
  H       36.415     -93.931    -167.904
  H       36.757     -95.342    -168.877
  H       37.990     -94.128    -168.634

 6  7  8  9  10  11  12  13  14  15  16  26  31  32  33  34  35 0
 6-311+G(2d,p)
 ****
 36  37 0
 6-311+G(2d,p)
 ****
 1  2  3  4  5  17  18  19  20  21  22  23  24  25 0
 3-21G
 ****
 27  28  29  30  38  39  40  41  42  43  44  45 0
 3-21G
 ****


