%nproc=1
%NoSave
%Mem=1900MB
#P OB98/GEN NMR

erre ene a

0 1
  C     -115.915     234.740      60.058
  O     -116.815     235.828      60.267
  P     -116.887     237.002      59.179
  C     -114.557     238.007      59.630
  O     -115.394     237.343      58.693
  C     -113.191     238.329      59.008
  O     -112.346     239.036      59.964
  C     -112.426     237.065      58.583
  O     -111.628     237.327      57.418
  C     -111.483     236.834      59.747
  O     -110.373     236.018      59.372
  C     -111.132     238.274      60.119
  N     -106.914     238.633      63.004
  C     -107.086     238.600      61.663
  N     -108.240     238.526      60.966
  C     -109.297     238.501      61.797
  C     -109.276     238.540      63.184
  C     -108.012     238.600      63.794
  N     -107.837     238.605      65.159
  N     -110.559     238.488      63.695
  C     -111.333     238.372      62.636
  N     -110.622     238.410      61.466
  O     -117.713     238.184      59.555
  O     -117.501     236.257      57.897
  H     -109.835     235.874      60.171
  H     -118.159     236.842      57.474
  H     -106.173     238.632      61.072
  H     -112.407     238.248      62.660
  H     -110.387     238.697      59.437
  H     -112.018     236.332      60.565
  H     -113.062     236.196      58.387
  H     -113.334     238.996      58.153
  H     -114.426     237.380      60.514
  H     -106.891     238.532      65.505
  H     -108.634     238.430      65.755
  H     -115.060     238.917      59.979
  P     -112.378     237.170      55.999
  C     -111.060     235.002      55.374
  O     -112.302     235.611      55.638
  O     -111.882     238.116      54.955
  O     -113.906     237.408      56.408
  H     -114.215     236.879      57.163
  H     -111.208     233.923      55.278
  H     -110.354     235.184      56.189
  H     -110.645     235.382      54.434
  H     -115.993     234.051      60.873
  H     -114.913     235.112      60.000
  H     -116.164     234.242      59.144

 3  4  5  6  7  8  9  10  11  12  22  25  29  30  31  32 0
 6-311+G(2d,p)
 ****
 33  36  37 0
 6-311+G(2d,p)
 ****
 1  2  13  14  15  16  17  18  19  20  21  23  24  26 0
 3-21G
 ****
 27  28  34  35  38  39  40  41  42  43  44  45  46  47  48 0
 3-21G
 ****


