%nproc=1
%NoSave
%Mem=1900MB
#P OB98/GEN NMR

erre ene a

0 1
  C      266.724     331.830     108.771
  O      265.339     332.023     108.564
  H      266.992     332.238     109.749
  H      267.297     332.355     108.001
  H      266.964     330.764     108.753
  P      264.758     331.542     107.147
  C      264.490     329.210     106.046
  O      265.212     330.011     106.971
  C      265.448     328.397     105.179
  O      266.232     329.266     104.334
  C      266.435     327.543     105.963
  O      265.848     326.310     106.346
  C      267.553     327.369     104.947
  O      267.226     326.339     103.988
  C      267.587     328.749     104.273
  N      268.985     333.602     104.387
  C      268.050     332.962     103.598
  N      267.405     333.720     102.684
  N      267.773     331.688     103.688
  C      268.532     331.042     104.603
  C      269.492     331.560     105.441
  C      269.747     332.983     105.370
  O      270.504     333.621     106.096
  N      270.030     330.587     106.245
  C      269.420     329.478     105.867
  N      268.505     329.702     104.869
  O      265.674     332.320     106.087
  O      263.313     331.821     106.916
  H      267.934     326.291     103.321
  H      265.118     332.589     105.331
  H      269.134     334.590     104.295
  H      269.598     328.497     106.290
  H      267.861     328.678     103.215
  H      268.485     327.062     105.421
  H      267.770     334.610     102.375
  H      266.822     328.085     106.837
  H      266.775     333.235     102.059
  H      264.839     327.770     104.515
  H      263.886     329.864     105.407
  H      263.827     328.533     106.594
  P      266.494     325.511     107.576
  C      266.817     325.935     110.116
  O      266.515     326.494     108.845
  O      268.037     325.403     107.157
  O      265.909     324.161     107.818
  H      268.236     324.493     106.866
  H      266.794     326.705     110.859
  H      267.792     325.494     110.089
  H      266.093     325.185     110.357

 6  7  8  9  10  11  12  13  14  15  26  29  33  34 0
 6-311+G(2d,p)
 ****
 36  38  39  40  41 0
 6-311+G(2d,p)
 ****
 1  2  3  4  5  16  17  18  19  20  21  22  23  24  25 0
 3-21G
 ****
 27  28  30  31  32  35  37  42  43  44  45  46  47 0
 3-21G
 ****
 48  49 0
 3-21G
 ****


