%nproc=1
%NoSave
%Mem=1900MB
#P OB98/GEN NMR

erre ene a

0 1
  C     -227.538     -71.447      17.664
  O     -226.347     -71.088      18.368
  P     -225.346     -72.245      18.843
  C     -223.365     -70.626      19.138
  O     -224.200     -71.590      19.760
  C     -223.959     -69.217      19.279
  O     -224.289     -68.936      20.670
  C     -222.990     -68.121      18.817
  O     -223.712     -67.020      18.241
  C     -222.379     -67.643      20.119
  O     -221.818     -66.338      19.990
  C     -223.583     -67.739      21.051
  N     -223.016     -65.023      25.355
  C     -223.486     -64.686      24.137
  N     -223.630     -65.467      23.045
  C     -223.240     -66.724      23.310
  C     -222.748     -67.221      24.507
  C     -222.632     -66.306      25.566
  N     -222.123     -66.644      26.800
  N     -222.450     -68.564      24.396
  C     -222.711     -68.860      23.140
  N     -223.221     -67.793      22.452
  O     -224.851     -73.154      17.768
  O     -226.223     -73.052      19.917
  H     -222.518     -65.695      20.207
  H     -226.078     -74.013      19.791
  H     -223.782     -63.646      24.021
  H     -222.533     -69.820      22.677
  H     -224.268     -66.893      20.919
  H     -221.580     -68.328      20.428
  H     -222.231     -68.455      18.104
  H     -224.894     -69.170      18.711
  H     -223.237     -70.872      18.082
  H     -221.971     -65.896      27.460
  H     -221.699     -67.553      26.922
  H     -222.364     -70.681      19.583
  P     -224.193     -67.214      16.715
  C     -226.569     -66.182      17.067
  O     -225.299     -66.084      16.461
  O     -224.592     -68.614      16.389
  O     -222.913     -66.706      15.900
  H     -222.571     -65.839      16.178
  H     -227.123     -65.260      16.878
  H     -226.474     -66.311      18.151
  H     -227.127     -67.019      16.643
  H     -228.090     -70.563      17.422
  H     -228.138     -72.084      18.280
  H     -227.278     -71.963      16.763

 3  4  5  6  7  8  9  10  11  12  22  25  29  30  31  32 0
 6-311+G(2d,p)
 ****
 33  36  37 0
 6-311+G(2d,p)
 ****
 1  2  13  14  15  16  17  18  19  20  21  23  24  26 0
 3-21G
 ****
 27  28  34  35  38  39  40  41  42  43  44  45  46  47  48 0
 3-21G
 ****


