%nproc=1
%NoSave
%Mem=1900MB
#P OB98/GEN NMR

erre ene a

0 1
  C     -946.142      -6.931    -562.027
  O     -946.458      -8.218    -562.508
  H     -945.099      -6.705    -562.283
  H     -946.244      -6.908    -560.936
  H     -946.792      -6.178    -562.477
  P     -947.982      -8.702    -562.383
  C     -947.414      -9.562    -559.994
  O     -948.010      -9.840    -561.248
  C     -947.649     -10.711    -559.016
  O     -949.076     -10.830    -558.762
  C     -947.152     -12.068    -559.530
  O     -946.591     -12.801    -558.430
  C     -948.423     -12.756    -560.005
  O     -948.304     -14.178    -559.989
  C     -949.466     -12.182    -559.041
  N     -950.811     -12.257    -559.603
  C     -951.387     -13.520    -559.672
  O     -950.776     -14.520    -559.289
  N     -952.635     -13.655    -560.239
  C     -953.210     -12.617    -560.780
  N     -954.430     -12.817    -561.349
  C     -952.604     -11.271    -560.786
  C     -951.420     -11.160    -560.179
  O     -948.225      -9.527    -563.737
  O     -948.985      -7.613    -562.191
  H     -947.886     -14.446    -559.147
  H     -949.153      -9.451    -564.031
  H     -953.122     -10.443    -561.268
  H     -950.892     -10.221    -560.157
  H     -949.457     -12.737    -558.095
  H     -948.632     -12.449    -561.039
  H     -946.397     -11.985    -560.322
  H     -947.173     -10.459    -558.061
  H     -954.813     -13.755    -561.339
  H     -947.863      -8.647    -559.588
  H     -954.944     -12.089    -561.824
  H     -946.338      -9.390    -560.140
  P     -945.112     -12.401    -557.980
  C     -944.027     -14.558    -558.937
  O     -944.266     -13.757    -557.790
  O     -945.304     -11.862    -556.486
  O     -944.476     -11.366    -558.853
  H     -945.202     -10.894    -556.455
  H     -943.457     -15.419    -558.658
  H     -943.483     -13.990    -559.662
  H     -944.961     -14.869    -559.356

 6  7  8  9  10  11  12  13  14  15  16  26  30  31  32  33  35 0
 6-311+G(2d,p)
 ****
 37  38 0
 6-311+G(2d,p)
 ****
 1  2  3  4  5  17  18  19  20  21  22  23  24  25 0
 3-21G
 ****
 27  28  29  34  36  39  40  41  42  43  44  45  46 0
 3-21G
 ****


