%nproc=1
%NoSave
%Mem=1900MB
#P OB98/GEN NMR

erre ene a

0 1
  C     -458.018    -265.595     139.584
  O     -458.500    -265.365     140.895
  H     -458.816    -266.053     138.992
  H     -457.161    -266.276     139.609
  H     -457.727    -264.649     139.118
  P     -457.464    -264.747     141.950
  C     -455.381    -265.629     143.233
  O     -456.454    -265.930     142.349
  C     -454.625    -266.912     143.566
  O     -453.784    -267.290     142.449
  C     -453.678    -266.779     144.758
  O     -454.366    -266.843     145.997
  C     -452.763    -267.971     144.530
  O     -453.332    -269.183     145.051
  C     -452.663    -268.026     142.988
  N     -451.388    -267.518     142.500
  C     -450.305    -268.391     142.602
  O     -450.402    -269.523     143.065
  N     -449.099    -267.902     142.175
  C     -448.861    -266.642     141.712
  O     -447.741    -266.238     141.421
  C     -450.047    -265.760     141.618
  C     -451.230    -266.230     142.016
  O     -458.361    -264.549     143.262
  O     -456.805    -263.475     141.518
  H     -458.603    -263.608     143.361
  H     -452.608    -269.847     145.046
  H     -448.305    -268.520     142.253
  H     -449.893    -264.750     141.252
  H     -452.107    -265.591     141.980
  H     -452.771    -269.063     142.639
  H     -451.795    -267.841     145.023
  H     -453.088    -265.861     144.675
  H     -455.351    -267.714     143.738
  H     -455.780    -265.200     144.158
  H     -454.720    -264.894     142.756
  P     -453.692    -266.156     147.278
  C     -451.863    -266.999     148.961
  O     -452.413    -267.048     147.662
  O     -454.766    -266.504     148.416
  O     -453.409    -264.701     147.097
  H     -455.180    -267.371     148.298
  H     -451.023    -267.659     149.018
  H     -452.603    -267.301     149.673
  H     -451.547    -266.000     149.177

 6  7  8  9  10  11  12  13  14  15  16  27  31  32  33  34  35 0
 6-311+G(2d,p)
 ****
 36  37 0
 6-311+G(2d,p)
 ****
 1  2  3  4  5  17  18  19  20  21  22  23  24  25 0
 3-21G
 ****
 26  28  29  30  38  39  40  41  42  43  44  45 0
 3-21G
 ****


