%nproc=1
%NoSave
%Mem=1900MB
#P OB98/GEN NMR

erre ene a

0 1
  C      -18.495    -146.241      10.716
  O      -19.042    -146.594       9.461
  H      -18.755    -147.019      11.438
  H      -18.922    -145.295      11.055
  H      -17.407    -146.164      10.659
  P      -18.694    -145.695       8.181
  C      -20.587    -144.031       8.740
  O      -19.196    -144.202       8.498
  C      -21.026    -142.604       8.392
  O      -20.518    -141.701       9.408
  C      -20.515    -142.117       7.034
  O      -21.517    -141.313       6.415
  C      -19.316    -141.259       7.395
  O      -19.046    -140.264       6.408
  C      -19.737    -140.683       8.745
  N      -17.262    -136.802      10.829
  C      -18.458    -136.829      10.137
  N      -19.079    -135.643       9.955
  N      -18.996    -137.923       9.661
  C      -18.275    -139.038       9.937
  C      -17.080    -139.142      10.611
  C      -16.487    -137.919      11.111
  O      -15.420    -137.833      11.719
  N      -16.653    -140.445      10.668
  C      -17.587    -141.125      10.029
  N      -18.588    -140.316       9.556
  O      -19.169    -146.247       6.873
  O      -17.103    -145.557       8.215
  H      -19.870    -139.741       6.297
  H      -16.687    -146.118       7.537
  H      -16.888    -135.931      11.164
  H      -17.588    -142.197       9.878
  H      -20.355    -139.786       8.643
  H      -18.424    -141.892       7.497
  H      -18.733    -134.767      10.315
  H      -20.248    -142.942       6.372
  H      -19.972    -135.640       9.478
  H      -22.120    -142.555       8.440
  H      -20.776    -144.224       9.802
  H      -21.151    -144.755       8.142
  P      -22.274    -141.869       5.115
  C      -20.942    -140.503       3.392
  O      -21.267    -141.804       3.864
  O      -23.628    -141.296       4.865
  O      -22.366    -143.446       5.407
  H      -23.202    -143.791       5.034
  H      -20.270    -140.582       2.563
  H      -20.476    -139.945       4.177
  H      -21.835    -140.003       3.080

 6  7  8  9  10  11  12  13  14  15  26  29  33  34 0
 6-311+G(2d,p)
 ****
 36  38  39  40  41 0
 6-311+G(2d,p)
 ****
 1  2  3  4  5  16  17  18  19  20  21  22  23  24  25 0
 3-21G
 ****
 27  28  30  31  32  35  37  42  43  44  45  46  47 0
 3-21G
 ****
 48  49 0
 3-21G
 ****


