%nproc=1
%NoSave
%Mem=1900MB
#P OB98/GEN NMR

erre ene a

0 1
  C      416.820    -609.705     329.043
  O      416.015    -609.005     328.120
  H      417.456    -610.409     328.498
  H      416.189    -610.270     329.736
  H      417.455    -609.014     329.600
  P      415.065    -607.854     328.710
  C      413.290    -609.652     329.296
  O      414.085    -608.568     329.762
  C      412.075    -609.858     330.201
  O      412.536    -610.314     331.511
  C      411.228    -608.591     330.422
  O      409.856    -608.984     330.525
  C      411.690    -608.119     331.792
  O      410.732    -607.269     332.431
  C      411.902    -609.463     332.490
  N      411.675    -609.216     337.513
  C      410.670    -609.404     336.571
  N      409.413    -609.541     337.047
  N      410.886    -609.445     335.292
  C      412.198    -609.321     334.956
  C      413.281    -609.134     335.783
  C      413.026    -609.061     337.206
  O      413.869    -608.886     338.082
  N      414.441    -609.032     335.063
  C      414.064    -609.155     333.797
  N      412.710    -609.340     333.689
  O      414.109    -607.519     327.470
  O      415.769    -606.638     329.216
  H      410.528    -606.530     331.818
  H      414.470    -606.775     326.952
  H      411.454    -609.182     338.489
  H      414.720    -609.124     332.946
  H      410.955    -609.935     332.788
  H      412.633    -607.566     331.707
  H      409.183    -609.568     338.028
  H      411.343    -607.831     329.643
  H      408.674    -609.718     336.379
  H      411.466    -610.667     329.783
  H      413.899    -610.568     329.297
  H      412.958    -609.442     328.272
  P      408.987    -609.040     329.178
  C      407.582    -606.965     329.871
  O      408.415    -607.569     328.897
  O      407.679    -609.845     329.632
  O      409.675    -609.706     328.032
  H      407.298    -610.318     328.873
  H      407.287    -605.993     329.535
  H      408.118    -606.876     330.793
  H      406.712    -607.570     330.021

 6  7  8  9  10  11  12  13  14  15  26  29  33  34 0
 6-311+G(2d,p)
 ****
 36  38  39  40  41 0
 6-311+G(2d,p)
 ****
 1  2  3  4  5  16  17  18  19  20  21  22  23  24  25 0
 3-21G
 ****
 27  28  30  31  32  35  37  42  43  44  45  46  47 0
 3-21G
 ****
 48  49 0
 3-21G
 ****


