%nproc=1
%NoSave
%Mem=1900MB
#P OB98/GEN NMR

erre ene a

0 1
  C      122.025     -45.639      50.746
  O      121.654     -45.556      49.381
  P      122.437     -44.523      48.435
  C      120.961     -42.422      48.993
  O      122.218     -43.068      49.073
  C      121.149     -40.916      48.785
  O      121.999     -40.396      49.843
  C      121.798     -40.536      47.448
  O      121.206     -39.299      47.026
  C      123.254     -40.328      47.827
  O      123.951     -39.514      46.898
  C      123.100     -39.708      49.220
  N      124.306     -39.818      50.042
  C      125.419     -39.070      49.666
  O      125.452     -38.343      48.676
  N      126.524     -39.209      50.466
  C      126.646     -40.049      51.534
  O      127.667     -40.146      52.203
  C      125.455     -40.848      51.853
  C      124.358     -40.691      51.113
  O      121.504     -44.525      47.137
  O      123.860     -44.893      48.191
  H      120.559     -44.612      47.348
  H      124.706     -39.107      47.361
  H      127.331     -38.648      50.234
  H      125.518     -41.540      52.685
  H      123.467     -41.270      51.327
  H      122.811     -38.654      49.131
  H      123.759     -41.300      47.874
  H      121.652     -41.299      46.678
  H      120.170     -40.431      48.888
  H      120.408     -42.587      49.921
  H      120.381     -42.860      48.173
  P      120.987     -39.062      45.449
  C      123.197     -37.692      45.148
  O      122.429     -38.820      44.797
  O      120.353     -37.588      45.470
  O      120.104     -40.063      44.779
  H      120.856     -36.969      46.025
  H      124.239     -37.877      44.876
  H      123.148     -37.495      46.222
  H      122.841     -36.816      44.599
  H      121.414     -46.367      51.238
  H      121.888     -44.685      51.211
  H      123.053     -45.927      50.819

 3  4  5  6  7  8  9  10  11  12  13  24  28  29  30  31  32 0
 6-311+G(2d,p)
 ****
 33  34 0
 6-311+G(2d,p)
 ****
 1  2  14  15  16  17  18  19  20  21  22  23  25  26  27 0
 3-21G
 ****
 35  36  37  38  39  40  41  42  43  44  45 0
 3-21G
 ****


