%nproc=1
%NoSave
%Mem=1900MB
#P OB98/GEN NMR

erre ene a

0 1
  C      238.762       7.664    -130.318
  O      238.726       8.692    -131.286
  H      239.359       8.008    -129.468
  H      239.232       6.770    -130.734
  H      237.756       7.426    -129.965
  P      237.778       8.514    -132.566
  C      239.850       7.626    -133.816
  O      238.473       7.425    -133.513
  C      240.342       6.524    -134.752
  O      240.214       5.236    -134.110
  C      239.545       6.416    -136.045
  O      239.875       7.451    -136.952
  C      239.926       5.016    -136.498
  O      241.190       5.015    -137.171
  C      240.021       4.256    -135.156
  N      238.836       3.438    -134.902
  C      238.780       2.214    -135.560
  O      239.665       1.807    -136.311
  N      237.634       1.490    -135.374
  C      236.514       1.926    -134.725
  O      235.431       1.354    -134.794
  C      236.653       3.196    -133.998
  C      237.785       3.891    -134.127
  O      237.364       9.777    -133.245
  O      236.510       7.723    -131.985
  H      235.774       8.349    -131.854
  H      241.359       4.082    -137.419
  H      237.569       0.619    -135.883
  H      235.809       3.543    -133.413
  H      237.899       4.849    -133.628
  H      240.904       3.605    -135.146
  H      239.184       4.599    -137.183
  H      238.471       6.436    -135.822
  H      241.406       6.697    -134.962
  H      240.422       7.593    -132.883
  H      239.974       8.612    -134.276
  P      238.763       8.049    -137.935
  C      239.131       6.722    -140.104
  O      238.315       6.893    -138.950
  O      239.117       9.347    -138.581
  O      237.471       8.218    -137.001
  H      237.117       9.121    -137.113
  H      238.738       5.928    -140.704
  H      240.129       6.481    -139.803
  H      239.139       7.628    -140.673

 6  7  8  9  10  11  12  13  14  15  16  27  31  32  33  34  35 0
 6-311+G(2d,p)
 ****
 36  37 0
 6-311+G(2d,p)
 ****
 1  2  3  4  5  17  18  19  20  21  22  23  24  25 0
 3-21G
 ****
 26  28  29  30  38  39  40  41  42  43  44  45 0
 3-21G
 ****


