%nproc=1
%NoSave
%Mem=1900MB
#P OB98/GEN NMR

erre ene a

0 1
  C     -103.565    -166.167      82.999
  O     -102.759    -165.174      82.397
  P     -102.752    -164.965      80.810
  C     -102.091    -166.291      78.718
  O     -102.099    -166.266      80.140
  C     -101.736    -167.678      78.187
  O     -102.783    -168.616      78.550
  C     -101.556    -167.741      76.664
  O     -100.476    -168.643      76.400
  C     -102.870    -168.329      76.189
  O     -102.761    -168.933      74.908
  C     -103.188    -169.288      77.340
  N     -104.594    -169.660      77.383
  C     -104.996    -170.707      76.553
  O     -104.209    -171.186      75.735
  N     -106.282    -171.173      76.663
  C     -107.136    -170.526      77.394
  N     -108.382    -171.058      77.529
  C     -106.804    -169.265      78.089
  C     -105.520    -168.917      78.078
  O     -102.171    -163.672      80.345
  O     -104.295    -165.082      80.391
  H     -104.544    -164.292      79.873
  H     -102.111    -169.664      74.955
  H     -107.578    -168.694      78.581
  H     -105.171    -168.024      78.583
  H     -102.584    -170.202      77.259
  H     -103.627    -167.537      76.130
  H     -101.328    -166.766      76.224
  H     -100.815    -168.011      78.688
  H     -108.560    -171.943      77.072
  H     -101.346    -165.575      78.370
  H     -108.994    -170.813      78.306
  H     -103.068    -165.970      78.336
  P      -99.621    -168.437      75.055
  C     -100.054    -168.636      72.504
  O     -100.588    -168.715      73.810
  O      -98.695    -169.751      75.059
  O      -98.765    -167.214      74.991
  H      -97.883    -169.567      74.547
  H     -100.865    -168.784      71.787
  H      -99.305    -169.417      72.353
  H      -99.609    -167.654      72.331
  H     -103.427    -166.144      84.060
  H     -103.285    -167.129      82.624
  H     -104.593    -165.979      82.769

 3  4  5  6  7  8  9  10  11  12  13  24  27  28  29  30  32 0
 6-311+G(2d,p)
 ****
 34  35 0
 6-311+G(2d,p)
 ****
 1  2  14  15  16  17  18  19  20  21  22  23  25  26 0
 3-21G
 ****
 31  33  36  37  38  39  40  41  42  43  44  45  46 0
 3-21G
 ****


