%nproc=1
%NoSave
%Mem=1900MB
#P OB98/GEN NMR

erre ene a

0 1
  C      732.133      97.269    -336.942
  O      731.550      97.358    -338.232
  H      732.541      96.265    -336.812
  H      731.374      97.447    -336.178
  H      732.945      97.999    -336.847
  P      730.908      98.771    -338.627
  C      732.978      99.613    -339.977
  O      732.137      99.777    -338.836
  C      732.740     100.747    -340.984
  O      733.015     102.021    -340.327
  C      733.657     100.677    -342.212
  O      732.955     101.285    -343.317
  C      734.810     101.571    -341.792
  O      735.617     101.912    -342.899
  C      734.033     102.684    -341.106
  N      736.277     107.252    -340.662
  C      735.468     106.744    -341.610
  N      734.897     105.520    -341.652
  C      735.219     104.808    -340.559
  C      736.025     105.198    -339.505
  C      736.577     106.493    -339.587
  N      737.411     107.018    -338.622
  N      736.135     104.190    -338.569
  C      735.397     103.203    -339.054
  N      734.834     103.534    -340.258
  O      730.241      99.269    -337.261
  O      729.927      98.737    -339.751
  H      736.385     102.453    -342.616
  H      729.296      99.025    -337.243
  H      735.248     107.401    -342.451
  H      735.249     102.242    -338.577
  H      733.520     103.330    -341.827
  H      735.463     101.054    -341.080
  H      733.946      99.661    -342.489
  H      731.684     100.756    -341.266
  H      732.744      98.645    -340.445
  H      734.026      99.613    -339.657
  H      737.774     107.949    -338.760
  H      737.651     106.446    -337.822
  P      732.645     100.409    -344.625
  C      730.427      99.311    -343.763
  O      731.769      99.136    -344.194
  O      734.073      99.745    -344.931
  O      732.151     101.165    -345.819
  H      734.150      99.562    -345.887
  H      730.004      98.359    -343.518
  H      729.857      99.764    -344.547
  H      730.409      99.942    -342.899

 6  7  8  9  10  11  12  13  14  15  25  28  32  33  34  35 0
 6-311+G(2d,p)
 ****
 36  37  40 0
 6-311+G(2d,p)
 ****
 1  2  3  4  5  16  17  18  19  20  21  22  23  24 0
 3-21G
 ****
 26  27  29  30  31  38  39 41  42  43  44  45  46  47  48 0
 3-21G
 ****


