%nproc=1
%NoSave
%Mem=1900MB
#P OB98/GEN NMR

erre ene a

0 1
  C       10.199     187.874    -277.994
  O        9.684     186.751    -277.311
  H        9.472     188.690    -277.924
  H       10.349     187.628    -279.050
  H       11.143     188.205    -277.556
  P       10.664     185.529    -276.980
  C       11.216     184.078    -274.919
  O       10.445     185.150    -275.439
  C       11.470     184.260    -273.417
  O       12.102     185.551    -273.203
  C       10.160     184.270    -272.620
  O       10.335     183.812    -271.284
  C        9.791     185.751    -272.596
  O        8.925     186.091    -271.519
  C       11.175     186.399    -272.510
  N       10.634     191.397    -271.643
  C       10.307     190.330    -270.829
  N        9.769     190.633    -269.623
  N       10.473     189.079    -271.172
  C       10.950     188.921    -272.430
  C       11.286     189.897    -273.339
  C       11.134     191.282    -272.937
  O       11.384     192.261    -273.627
  N       11.731     189.351    -274.520
  C       11.658     188.053    -274.330
  N       11.213     187.738    -273.069
  O       12.119     186.207    -276.966
  O       10.606     184.376    -277.936
  H        8.970     187.056    -271.397
  H       12.806     185.535    -277.125
  H       10.513     192.343    -271.320
  H       11.924     187.301    -275.057
  H       11.502     186.465    -271.458
  H        9.267     185.989    -273.527
  H        9.448     191.569    -269.407
  H        9.370     183.686    -273.098
  H        9.249     189.887    -269.155
  H       12.171     183.497    -273.056
  H       12.160     184.061    -275.472
  H       10.719     183.125    -275.110
  P        9.852     182.331    -270.909
  C        9.883     181.054    -268.593
  O        9.607     182.219    -269.335
  O       11.147     181.433    -271.165
  O        8.667     181.852    -271.702
  H       10.984     180.800    -271.889
  H        9.639     181.220    -267.565
  H       10.922     180.814    -268.679
  H        9.298     180.243    -268.972

 6  7  8  9  10  11  12  13  14  15  26  29  33  34 0
 6-311+G(2d,p)
 ****
 36  38  39  40  41 0
 6-311+G(2d,p)
 ****
 1  2  3  4  5  16  17  18  19  20  21  22  23  24  25 0
 3-21G
 ****
 27  28  30  31  32  35  37  42  43  44  45  46  47 0
 3-21G
 ****
 48  49 0
 3-21G
 ****


