%nproc=1
%NoSave
%Mem=1900MB
#P OB98/GEN NMR

erre ene a

0 1
  C      -72.381    -148.919       3.271
  O      -73.362    -148.540       4.221
  H      -72.123    -148.043       2.664
  H      -72.762    -149.698       2.607
  H      -71.479    -149.272       3.780
  P      -74.017    -149.687       5.128
  C      -75.217    -147.809       6.443
  O      -75.349    -149.038       5.741
  C      -76.533    -147.454       7.130
  O      -76.960    -148.535       7.980
  C      -76.427    -146.233       8.030
  O      -76.401    -145.041       7.271
  C      -77.650    -146.419       8.912
  O      -78.842    -145.989       8.243
  C      -77.651    -147.954       9.111
  N      -77.039    -148.360      10.369
  C      -77.728    -148.002      11.533
  O      -78.789    -147.383      11.464
  N      -77.174    -148.334      12.747
  C      -76.052    -148.981      12.795
  N      -75.562    -149.283      14.028
  C      -75.302    -149.391      11.591
  C      -75.845    -149.047      10.424
  O      -73.126    -150.341       6.140
  O      -74.583    -150.735       4.059
  H      -79.559    -146.053       8.907
  H      -73.905    -151.402       3.842
  H      -74.373    -149.933      11.681
  H      -75.361    -149.313       9.490
  H      -78.678    -148.343       9.088
  H      -77.565    -145.857       9.839
  H      -75.538    -146.306       8.667
  H      -77.297    -147.310       6.357
  H      -76.106    -148.971      14.827
  H      -74.958    -147.043       5.708
  H      -74.748    -149.854      14.187
  H      -74.410    -147.868       7.183
  P      -75.594    -143.760       7.792
  C      -74.993    -143.327       5.320
  O      -75.505    -142.772       6.529
  O      -74.295    -144.053       8.466
  O      -76.654    -143.025       8.743
  H      -76.758    -143.505       9.601
  H      -74.984    -142.575       4.558
  H      -75.614    -144.141       5.010
  H      -73.997    -143.681       5.484

 6  7  8  9  10  11  12  13  14  15  16  26  30  31  32  33  35 0
 6-311+G(2d,p)
 ****
 37  38 0
 6-311+G(2d,p)
 ****
 1  2  3  4  5  17  18  19  20  21  22  23  24  25 0
 3-21G
 ****
 27  28  29  34  36  39  40  41  42  43  44  45  46 0
 3-21G
 ****


