%nproc=1
%NoSave
%Mem=1900MB
#P OB98/GEN NMR

erre ene a

0 1
  C      -13.935    -899.110     -94.304
  O      -15.267    -899.490     -94.009
  H      -13.306    -900.000     -94.304
  H      -13.565    -898.420     -93.541
  H      -13.880    -898.640     -95.289
  P      -16.399    -898.370     -94.185
  C      -16.069    -897.310     -91.832
  O      -15.983    -897.140     -93.239
  C      -15.033    -896.420     -91.126
  O      -15.201    -895.060     -91.597
  C      -15.174    -896.400     -89.595
  O      -13.853    -896.320     -89.030
  C      -15.907    -895.110     -89.338
  O      -15.720    -894.580     -88.034
  C      -15.331    -894.210     -90.441
  N      -16.159    -893.040     -90.724
  C      -16.206    -892.040     -89.756
  O      -15.525    -892.020     -88.730
  N      -17.075    -891.010     -90.016
  C      -17.899    -890.910     -91.099
  O      -18.669    -889.960     -91.260
  C      -17.819    -892.000     -92.081
  C      -16.959    -893.000     -91.845
  O      -17.652    -899.010     -93.422
  O      -16.720    -897.990     -95.590
  H      -18.191    -899.550     -94.033
  H      -16.178    -893.710     -87.987
  H      -17.120    -890.270     -89.340
  H      -18.461    -891.960     -92.940
  H      -16.896    -893.840     -92.539
  H      -14.318    -893.890     -90.165
  H      -16.986    -895.250     -89.491
  H      -15.697    -897.260     -89.182
  H      -14.033    -896.740     -91.430
  H      -15.866    -898.360     -91.582
  H      -17.080    -897.050     -91.496
  P      -13.354    -897.540     -88.133
  C      -13.686    -896.280     -85.854
  O      -14.072    -897.340     -86.705
  O      -11.828    -897.140     -87.875
  O      -13.565    -898.870     -88.788
  H      -11.700    -896.180     -87.779
  H      -14.271    -896.310     -84.959
  H      -13.845    -895.347     -86.352
  H      -12.650    -896.380     -85.607

 6  7  8  9  10  11  12  13  14  15  16  27  31  32  33  34  35 0
 6-311+G(2d,p)
 ****
 36  37 0
 6-311+G(2d,p)
 ****
 1  2  3  4  5  17  18  19  20  21  22  23  24  25 0
 3-21G
 ****
 26  28  29  30  38  39  40  41  42  43  44  45 0
 3-21G
 ****


