%nproc=1
%NoSave
%Mem=1900MB
#P OB98/GEN NMR

erre ene a

0 1
  C     -125.381      93.343     123.779
  O     -124.182      94.041     123.496
  H     -125.955      93.915     124.513
  H     -125.164      92.356     124.197
  H     -125.983      93.238     122.871
  P     -123.125      93.368     122.502
  C     -121.641      92.817     124.550
  O     -122.281      92.324     123.378
  C     -120.455      93.707     124.181
  O     -119.939      94.366     125.354
  C     -119.277      92.951     123.575
  O     -119.550      92.591     122.236
  C     -118.166      93.973     123.762
  O     -118.238      95.003     122.764
  C     -118.513      94.542     125.161
  N     -117.763      93.921     126.247
  C     -116.419      94.304     126.363
  O     -115.933      95.108     125.569
  N     -115.668      93.746     127.369
  C     -116.211      92.920     128.207
  N     -115.411      92.409     129.181
  C     -117.629      92.521     128.142
  C     -118.335      93.044     127.140
  O     -122.289      94.310     121.690
  O     -124.018      92.421     121.571
  H     -118.114      94.557     121.903
  H     -124.270      92.886     120.751
  H     -118.044      91.835     128.868
  H     -119.386      92.800     127.017
  H     -118.323      95.625     125.193
  H     -117.173      93.524     123.690
  H     -119.040      92.070     124.180
  H     -120.815      94.485     123.495
  H     -114.448      92.728     129.199
  H     -121.298      91.949     125.121
  H     -115.759      91.892     129.977
  H     -122.352      93.377     125.171
  P     -119.289      91.104     121.698
  C     -116.920      91.817     120.991
  O     -117.696      90.897     121.744
  O     -119.925      90.781     120.388
  O     -119.792      90.174     122.899
  H     -120.781      90.120     122.905
  H     -115.882      91.580     121.099
  H     -117.098      92.810     121.348
  H     -117.195      91.755     119.959

 6  7  8  9  10  11  12  13  14  15  16  26  30  31  32  33  35 0
 6-311+G(2d,p)
 ****
 37  38 0
 6-311+G(2d,p)
 ****
 1  2  3  4  5  17  18  19  20  21  22  23  24  25 0
 3-21G
 ****
 27  28  29  34  36  39  40  41  42  43  44  45  46 0
 3-21G
 ****


