%nproc=1
%NoSave
%Mem=1900MB
#P OB98/GEN NMR

erre ene a

0 1
  C       53.969     171.687    -241.083
  O       52.753     172.127    -241.664
  P       51.490     171.138    -241.594
  C       52.220     169.932    -243.782
  O       51.909     169.814    -242.399
  C       52.431     168.549    -244.393
  O       53.583     167.903    -243.809
  C       51.276     167.586    -244.171
  O       50.215     167.792    -245.093
  C       51.952     166.250    -244.433
  O       52.053     166.017    -245.853
  C       53.346     166.474    -243.829
  N       55.460     162.868    -240.980
  C       55.718     163.220    -242.290
  N       56.626     162.471    -242.949
  N       55.140     164.223    -242.896
  C       54.248     164.880    -242.116
  C       53.911     164.624    -240.804
  C       54.549     163.505    -240.147
  O       54.325     163.109    -239.008
  N       52.975     165.513    -240.347
  C       52.743     166.309    -241.374
  N       53.461     165.940    -242.482
  O       50.421     171.831    -242.562
  O       50.949     170.914    -240.219
  H       52.729     165.322    -245.973
  H       49.529     171.471    -242.386
  H       55.929     162.080    -240.559
  H       52.061     167.148    -241.366
  H       54.132     166.022    -244.439
  H       51.403     165.403    -244.012
  H       57.056     161.645    -242.557
  H       50.921     167.615    -243.133
  H       56.784     162.666    -243.930
  H       52.626     168.680    -245.465
  H       53.129     170.527    -243.897
  H       51.402     170.449    -244.291
  P       48.747     167.359    -244.610
  C       48.935     165.170    -245.999
  O       48.711     165.760    -244.736
  O       47.812     167.858    -245.811
  O       48.331     167.931    -243.295
  H       46.909     168.033    -245.486
  H       49.139     164.105    -245.854
  H       49.794     165.626    -246.502
  H       48.041     165.276    -246.618
  H       54.716     172.443    -241.204
  H       54.290     170.788    -241.566
  H       53.818     171.498    -240.041

 3  4  5  6  7  8  9  10  11  12  23  26  30  31 0
 6-311+G(2d,p)
 ****
 33  35  36  37  38 0
 6-311+G(2d,p)
 ****
 1  2  13  14  15  16  17  18  19  20  21  22  24  25 0
 3-21G
 ****
 27  28  29  32  34  39  40  41  42  43  44  45  46  47  48  49 0
 3-21G
 ****


