%nproc=1
%NoSave
%Mem=1900MB
#P OB98/GEN NMR

erre ene a

0 1
  C      562.759     820.680     473.075
  O      562.187     820.458     471.795
  P      560.604     820.696     471.640
  C      559.990     818.880     473.388
  O      559.917     819.301     472.031
  C      558.901     817.860     473.694
  O      557.614     818.409     473.379
  C      559.006     816.568     472.888
  O      559.954     815.671     473.428
  C      557.588     816.024     473.030
  O      557.460     815.341     474.288
  C      556.738     817.310     473.028
  N      552.768     816.410     470.017
  C      553.035     815.939     471.285
  N      552.108     815.136     471.838
  N      554.128     816.228     471.947
  C      554.949     817.075     471.285
  C      554.792     817.604     470.022
  C      553.607     817.239     469.276
  O      553.344     817.575     468.129
  N      555.832     818.437     469.699
  C      556.600     818.437     470.770
  N      556.124     817.603     471.747
  O      560.405     820.776     470.056
  O      560.074     821.909     472.323
  H      558.291     814.854     474.438
  H      559.600     821.293     469.848
  H      551.904     816.178     469.556
  H      557.502     819.023     470.880
  H      555.954     817.268     473.794
  H      557.322     815.307     472.248
  H      551.198     814.988     471.434
  H      559.206     816.779     471.830
  H      552.271     814.813     472.785
  H      558.931     817.638     474.766
  H      559.855     819.748     474.041
  H      560.979     818.454     473.573
  P      561.410     815.658     472.739
  C      560.621     813.929     470.972
  O      561.515     814.229     472.023
  O      562.400     815.544     473.990
  O      561.698     816.853     471.893
  H      563.272     815.919     473.764
  H      560.408     814.812     470.359
  H      559.687     813.536     471.387
  H      561.068     813.165     470.334
  H      563.810     820.486     473.034
  H      562.303     820.025     473.788
  H      562.595     821.696     473.368

 3  4  5  6  7  8  9  10  11  12  23  26  30  31  33  0
 6-311+G(2d,p)
 ****
 35  36  37  38 0
 6-311+G(2d,p)
 ****
 1  2  13  14  15  16  17  18  19  20  21  22  24  25  27  28  29 0
 3-21G
 ****
 32  34  39  40  41  42  43  44  45  46  47  48  49 0
 3-21G
 ****


