%nproc=1
%NoSave
%Mem=1900MB
#P OB98/GEN NMR

erre ene a

0 1
  C     -345.782       3.342      22.779
  O     -345.169       3.924      21.642
  H     -346.778       3.766      22.900
  H     -345.189       3.570      23.671
  H     -345.874       2.256      22.657
  P     -343.843       3.212      21.086
  C     -343.750       4.062      18.632
  O     -343.246       4.185      19.955
  C     -343.030       5.037      17.702
  O     -343.232       6.394      18.136
  C     -341.523       4.826      17.614
  O     -341.182       3.801      16.687
  C     -341.076       6.187      17.109
  O     -341.346       6.293      15.692
  C     -342.005       7.137      17.888
  N     -341.627      11.064      21.077
  C     -342.217      10.993      19.831
  N     -342.783      12.130      19.363
  N     -342.250       9.903      19.102
  C     -341.625       8.849      19.686
  C     -340.994       8.806      20.916
  C     -340.983      10.010      21.711
  O     -340.479      10.127      22.829
  N     -340.475       7.562      21.168
  C     -340.768       6.865      20.087
  N     -341.462       7.606      19.155
  O     -344.426       1.974      20.253
  O     -342.878       2.755      22.133
  H     -342.300       6.138      15.570
  H     -344.325       1.160      20.784
  H     -341.617      11.931      21.594
  H     -340.510       5.829      19.931
  H     -342.272       8.031      17.303
  H     -340.008       6.361      17.242
  H     -342.775      13.008      19.866
  H     -341.079       4.640      18.608
  H     -343.225      12.098      18.453
  H     -343.490       4.945      16.706
  H     -344.820       4.287      18.638
  H     -343.600       3.034      18.291
  P     -340.127       2.681      17.147
  C     -341.577       0.610      16.566
  O     -340.421       1.371      16.257
  O     -340.661       2.271      18.601
  O     -338.706       3.125      17.192
  H     -340.031       2.573      19.287
  H     -341.644      -0.224      15.899
  H     -342.447       1.223      16.459
  H     -341.512       0.256      17.574

 6  7  8  9  10  11  12  13  14  15  26  29  33  34 0
 6-311+G(2d,p)
 ****
 36  38  39  40  41 0
 6-311+G(2d,p)
 ****
 1  2  3  4  5  16  17  18  19  20  21  22  23  24  25 0
 3-21G
 ****
 27  28  30  31  32  35  37  42  43  44  45  46  47 0
 3-21G
 ****
 48  49 0
 3-21G
 ****


