%nproc=1
%NoSave
%Mem=1900MB
#P OB98/GEN NMR

erre ene a

0 1
  C      122.089      21.537      35.409
  O      121.239      21.718      34.290
  P      121.130      20.600      33.153
  C      119.153      19.290      34.278
  O      120.477      19.293      33.792
  C      118.448      18.017      33.791
  O      118.006      18.184      32.429
  C      119.378      16.807      33.841
  O      119.204      16.093      35.054
  C      118.963      16.021      32.612
  O      117.787      15.238      32.888
  C      118.630      17.155      31.614
  N      119.742      17.775      30.869
  C      120.192      17.187      29.690
  O      119.696      16.179      29.198
  N      121.269      17.796      29.096
  C      121.887      18.930      29.537
  O      122.981      19.321      29.145
  C      121.201      19.644      30.617
  C      120.192      19.034      31.238
  O      122.654      20.176      32.917
  O      120.467      21.034      31.887
  H      118.024      14.600      33.585
  H      123.020      20.628      32.135
  H      121.689      17.296      28.319
  H      121.573      20.618      30.907
  H      119.692      19.529      32.068
  H      117.892      16.823      30.876
  H      119.736      15.314      32.317
  H      120.421      17.124      33.718
  H      117.562      17.843      34.414
  H      118.622      20.180      33.926
  H      119.155      19.326      35.372
  P      120.310      15.030      35.510
  C      121.154      16.472      37.453
  O      121.469      15.896      36.201
  O      120.764      14.079      34.453
  O      119.605      14.269      36.731
  H      119.216      13.427      36.417
  H      122.068      16.876      37.894
  H      120.734      15.720      38.128
  H      120.438      17.287      37.314
  H      122.021      22.391      36.050
  H      123.099      21.421      35.075
  H      121.789      20.662      35.947

 3  4  5  6  7  8  9  10  11  12  13  23  28  29  30  31  32 0
 6-311+G(2d,p)
 ****
 33  34 0
 6-311+G(2d,p)
 ****
 1  2  14  15  16  17  18  19  20  21  22  24  25  26  27 0
 3-21G
 ****
 35  36  37  38  39  40  41  42  43  44  45 0
 3-21G
 ****


