%nproc=1
%NoSave
%Mem=1900MB
#P OB98/GEN NMR

erre ene a

0 1
  C      206.641      29.703    -288.163
  O      205.810      30.843    -288.249
  H      207.326      29.829    -287.322
  H      207.227      29.592    -289.080
  H      206.036      28.809    -287.999
  P      204.763      30.888    -289.463
  C      202.533      31.330    -288.208
  O      203.358      30.387    -288.876
  C      201.140      31.322    -288.829
  O      201.217      31.732    -290.215
  C      200.474      29.953    -288.847
  O      199.933      29.602    -287.588
  C      199.409      30.167    -289.909
  O      198.233      30.783    -289.359
  C      200.116      31.112    -290.906
  N      200.549      30.414    -292.112
  C      199.530      29.960    -292.943
  O      198.334      30.122    -292.696
  N      199.929      29.272    -294.057
  C      201.217      28.970    -294.391
  O      201.504      28.286    -295.367
  C      202.253      29.489    -293.483
  C      201.876      30.169    -292.396
  O      205.241      29.678    -290.397
  O      204.707      32.183    -290.202
  H      205.730      30.025    -291.165
  H      197.574      30.804    -290.079
  H      199.205      28.924    -294.666
  H      203.285      29.272    -293.721
  H      202.621      30.543    -291.700
  H      199.437      31.920    -291.209
  H      199.093      29.224    -290.353
  H      201.182      29.194    -289.203
  H      200.514      32.050    -288.290
  H      202.965      32.331    -288.311
  H      202.488      31.074    -287.145
  P      199.762      28.048    -287.233
  C      201.826      27.770    -285.631
  O      201.228      27.496    -286.884
  O      199.447      27.434    -288.676
  O      198.729      27.780    -286.193
  H      199.932      27.880    -289.392
  H      202.795      27.319    -285.592
  H      201.215      27.370    -284.849
  H      201.920      28.828    -285.504

 6  7  8  9  10  11  12  13  14  15  16  27  31  32  33  34  35 0
 6-311+G(2d,p)
 ****
 36  37 0
 6-311+G(2d,p)
 ****
 1  2  3  4  5  17  18  19  20  21  22  23  24  25 0
 3-21G
 ****
 26  28  29  30  38  39  40  41  42  43  44  45 0
 3-21G
 ****


