%nproc=1
%NoSave
%Mem=1900MB
#P OB98/GEN NMR

erre ene a

0 1
  C     -101.097    1041.994    -655.999
  O     -101.808    1042.582    -657.060
  H     -101.514    1041.003    -655.790
  H     -101.198    1042.611    -655.095
  H     -100.032    1041.885    -656.247
  P     -101.137    1043.843    -657.789
  C     -101.460    1042.714    -660.108
  O     -100.550    1043.309    -659.184
  C     -100.711    1041.826    -661.103
  O      -99.773    1040.992    -660.360
  C     -101.618    1040.893    -661.933
  O     -101.081    1040.783    -663.249
  C     -101.446    1039.559    -661.224
  O     -101.757    1038.458    -662.086
  C      -99.981    1039.638    -660.813
  N      -99.591    1034.697    -659.968
  C      -99.735    1035.397    -661.154
  N      -99.860    1034.675    -662.283
  N      -99.769    1036.703    -661.213
  C      -99.620    1037.300    -660.013
  C      -99.476    1036.733    -658.774
  C      -99.457    1035.284    -658.707
  O      -99.351    1034.602    -657.697
  N      -99.407    1037.683    -657.789
  C      -99.536    1038.844    -658.430
  N      -99.668    1038.664    -659.795
  O      -99.824    1044.103    -656.906
  O     -101.994    1045.067    -657.883
  H     -102.712    1038.490    -662.285
  H     -100.012    1044.786    -656.230
  H      -99.596    1033.688    -659.969
  H      -99.566    1039.825    -657.975
  H      -99.293    1039.445    -661.652
  H     -102.107    1039.512    -660.349
  H      -99.813    1033.670    -662.322
  H     -102.665    1041.227    -661.982
  H      -99.918    1035.180    -663.170
  H     -100.106    1042.466    -661.760
  H     -101.981    1043.512    -660.659
  H     -102.204    1042.132    -659.558
  P     -101.745    1041.678    -664.414
  C      -99.520    1042.734    -665.276
  O     -100.796    1042.940    -664.681
  O     -103.021    1042.308    -663.695
  O     -102.129    1040.889    -665.629
  H     -103.745    1042.412    -664.334
  H      -99.020    1043.674    -665.382
  H      -99.644    1042.285    -666.239
  H      -98.936    1042.088    -664.654

 6  7  8  9  10  11  12  13  14  15  26  29  33  34 0
 6-311+G(2d,p)
 ****
 36  38  39  40  41 0
 6-311+G(2d,p)
 ****
 1  2  3  4  5  16  17  18  19  20  21  22  23  24  25 0
 3-21G
 ****
 27  28  30  31  32  35  37  42  43  44  45  46  47 0
 3-21G
 ****
 48  49 0
 3-21G
 ****


