%nproc=1
%NoSave
%Mem=1900MB
#P OB98/GEN NMR

erre ene a

0 1
  C        1.777       7.715     489.148
  O        3.002       7.795     488.401
  P        4.415       7.284     488.967
  C        5.211       9.753     488.977
  O        5.518       8.404     488.634
  C        6.451      10.640     488.854
  O        7.442      10.265     489.838
  C        7.191      10.542     487.524
  O        6.499      11.189     486.471
  C        8.530      11.186     487.881
  O        8.470      12.618     487.782
  C        8.708      10.769     489.356
  N        9.770       9.790     489.548
  C       11.052      10.291     489.772
  O       11.265      11.501     489.726
  N       12.066       9.398     490.033
  C       11.841       8.125     489.961
  N       12.881       7.294     490.247
  C       10.531       7.559     489.586
  C        9.549       8.439     489.401
  O        4.791       5.915     488.508
  O        4.280       7.345     490.561
  H        4.887       6.694     490.964
  H        7.904      12.928     488.515
  H       10.396       6.487     489.501
  H        8.551       8.104     489.138
  H        8.921      11.650     489.975
  H        9.335      10.847     487.224
  H        7.348       9.487     487.276
  H        6.144      11.680     489.044
  H       13.760       7.719     490.509
  H        4.863       9.772     490.016
  H       12.803       6.289     490.246
  H        4.403      10.112     488.333
  P        5.313      10.367     485.769
  C        6.834       9.864     483.730
  O        5.595      10.358     484.190
  O        4.044      11.332     485.925
  O        5.052       9.022     486.372
  H        3.249      10.800     486.119
  H        6.699       9.474     482.716
  H        7.219       9.067     484.370
  H        7.556      10.684     483.695
  H        0.976       8.116     488.563
  H        1.874       8.277     490.053
  H        1.569       6.692     489.384

 3  4  5  6  7  8  9  10  11  12  13  24  27  28  29  30  32 0
 6-311+G(2d,p)
 ****
 34  35 0
 6-311+G(2d,p)
 ****
 1  2  14  15  16  17  18  19  20  21  22  23  25  26 0
 3-21G
 ****
 31  33  36  37  38  39  40  41  42  43  44  45  46 0
 3-21G
 ****


