%nproc=1
%NoSave
%Mem=1900MB
#P OB98/GEN NMR

erre ene a

0 1
  C     1061.725    -198.685    -423.655
  O     1062.587    -198.942    -422.549
  P     1064.151    -198.657    -422.753
  C     1064.519    -200.027    -420.565
  O     1064.940    -199.777    -421.893
  C     1064.754    -201.488    -420.197
  O     1063.976    -202.357    -421.048
  C     1066.202    -201.967    -420.383
  O     1067.011    -201.612    -419.273
  C     1066.018    -203.472    -420.438
  O     1065.846    -204.027    -419.110
  C     1064.691    -203.607    -421.206
  N     1066.715    -206.860    -424.539
  C     1066.502    -207.012    -423.166
  N     1066.928    -208.153    -422.608
  N     1065.907    -206.105    -422.438
  C     1065.531    -205.007    -423.132
  C     1065.679    -204.774    -424.467
  C     1066.346    -205.754    -425.289
  O     1066.612    -205.669    -426.487
  N     1065.149    -203.523    -424.829
  C     1064.683    -203.050    -423.694
  N     1064.926    -203.870    -422.629
  O     1064.399    -197.327    -421.897
  O     1064.596    -198.476    -424.172
  H     1065.804    -204.992    -419.202
  H     1065.238    -196.920    -422.135
  H     1067.202    -207.600    -425.053
  H     1064.180    -202.080    -423.585
  H     1064.050    -204.419    -420.814
  H     1066.866    -204.014    -420.889
  H     1067.447    -208.843    -423.110
  H     1066.630    -201.605    -421.322
  H     1066.847    -208.243    -421.604
  H     1064.426    -201.654    -419.164
  H     1063.451    -199.772    -420.459
  H     1065.091    -199.381    -419.891
  P     1068.591    -201.449    -419.570
  C     1068.884    -200.886    -417.050
  O     1069.311    -201.681    -418.132
  O     1068.734    -199.863    -419.831
  O     1069.104    -202.285    -420.704
  H     1069.529    -199.705    -420.423
  H     1069.267    -201.325    -416.132
  H     1067.790    -200.855    -416.985
  H     1069.268    -199.871    -417.128
  H     1060.717    -198.917    -423.383
  H     1062.019    -199.293    -424.485
  H     1061.793    -197.653    -423.928

 3  4  5  6  7  8  9  10  11  12  23  26  30  31 0
 6-311+G(2d,p)
 ****
 33  35  36  37  38 0
 6-311+G(2d,p)
 ****
 1  2  13  14  15  16  17  18  19  20  21  22  24  25 0
 3-21G
 ****
 27  28  29  32  34  39  40  41  42  43  44  45  46  47  48  49 0
 3-21G
 ****


