%nproc=1
%NoSave
%Mem=1900MB
#P OB98/GEN NMR

erre ene a

0 1
  C     -448.403    -154.473    -342.512
  O     -448.277    -155.825    -342.111
  H     -449.450    -154.173    -342.413
  H     -448.104    -154.372    -343.559
  H     -447.788    -153.821    -341.883
  P     -446.788    -156.367    -341.862
  C     -444.929    -157.404    -343.351
  O     -446.214    -156.803    -343.300
  C     -444.595    -157.822    -344.781
  O     -445.490    -158.863    -345.228
  C     -444.706    -156.697    -345.804
  O     -443.524    -155.900    -345.835
  C     -444.858    -157.493    -347.088
  O     -443.575    -158.014    -347.495
  C     -445.774    -158.646    -346.640
  N     -450.073    -160.246    -348.811
  C     -448.786    -160.738    -348.929
  N     -448.617    -161.802    -349.745
  N     -447.751    -160.232    -348.299
  C     -448.068    -159.158    -347.539
  C     -449.298    -158.573    -347.346
  C     -450.435    -159.154    -348.028
  O     -451.596    -158.768    -347.948
  N     -449.223    -157.496    -346.498
  C     -447.941    -157.412    -346.195
  N     -447.193    -158.396    -346.802
  O     -447.040    -157.761    -341.114
  O     -445.908    -155.474    -341.057
  H     -442.922    -157.303    -347.364
  H     -446.873    -157.645    -340.159
  H     -450.833    -160.670    -349.317
  H     -447.505    -156.673    -345.539
  H     -445.552    -159.581    -347.169
  H     -445.234    -156.895    -347.918
  H     -449.369    -162.223    -350.274
  H     -445.603    -156.081    -345.642
  H     -447.684    -162.175    -349.845
  H     -443.580    -158.246    -344.782
  H     -444.921    -158.289    -342.702
  H     -444.180    -156.687    -342.988
  P     -443.679    -154.329    -346.121
  C     -443.459    -152.809    -348.208
  O     -443.595    -154.126    -347.715
  O     -442.284    -153.741    -345.596
  O     -444.835    -153.669    -345.447
  H     -442.432    -153.203    -344.791
  H     -443.417    -152.831    -349.277
  H     -442.559    -152.376    -347.824
  H     -444.298    -152.223    -347.896

 6  7  8  9  10  11  12  13  14  15  26  29  33  34 0
 6-311+G(2d,p)
 ****
 36  38  39  40  41 0
 6-311+G(2d,p)
 ****
 1  2  3  4  5  16  17  18  19  20  21  22  23  24  25 0
 3-21G
 ****
 27  28  30  31  32  35  37  42  43  44  45  46  47 0
 3-21G
 ****
 48  49 0
 3-21G
 ****


