%nproc=1
%NoSave
%Mem=1900MB
#P OB98/GEN NMR

erre ene a

0 1
  C     -152.392      45.253     106.225
  O     -153.703      45.456     106.716
  H     -152.018      46.199     105.823
  H     -152.384      44.505     105.428
  H     -151.732      44.936     107.039
  P     -154.565      44.165     107.124
  C     -155.356      43.875     104.682
  O     -154.676      43.280     105.786
  C     -155.055      43.122     103.383
  O     -153.634      43.109     103.134
  C     -155.469      41.659     103.413
  O     -156.866      41.452     103.423
  C     -154.628      41.058     102.296
  O     -155.230      41.172     101.009
  C     -153.350      41.929     102.354
  N     -152.209      41.191     102.881
  C     -151.381      40.596     101.933
  O     -151.587      40.654     100.721
  N     -150.321      39.889     102.428
  C     -150.043      39.681     103.748
  O     -149.099      39.000     104.128
  C     -150.969      40.313     104.705
  C     -151.995      41.028     104.236
  O     -155.885      44.442     107.777
  O     -153.564      43.314     108.038
  H     -155.419      42.120     100.864
  H     -154.051      42.636     108.564
  H     -149.704      39.460     101.757
  H     -150.782      40.167     105.759
  H     -152.691      41.503     104.921
  H     -153.085      42.280     101.348
  H     -154.437      39.996     102.465
  H     -155.094      41.221     104.347
  H     -155.541      43.653     102.556
  H     -155.000      44.907     104.589
  H     -156.433      43.887     104.877
  P     -157.570      40.261     104.220
  C     -157.792      38.945     101.989
  O     -157.403      38.914     103.358
  O     -158.900      40.556     104.836
  O     -156.523      40.022     105.426
  H     -157.037      39.761     106.214
  H     -157.624      37.984     101.549
  H     -157.214      39.681     101.470
  H     -158.830      39.193     101.919

 6  7  8  9  10  11  12  13  14  15  16  26  31  32  33  34  35 0
 6-311+G(2d,p)
 ****
 36  37 0
 6-311+G(2d,p)
 ****
 1  2  3  4  5  17  18  19  20  21  22  23  24  25 0
 3-21G
 ****
 27  28  29  30  38  39  40  41  42  43  44  45 0
 3-21G
 ****


