%nproc=1
%NoSave
%Mem=1900MB
#P OB98/GEN NMR

erre ene a

0 1
  C     -405.427    -962.442     436.220
  O     -405.487    -961.975     437.549
  P     -405.754    -962.915     438.808
  C     -407.900    -963.921     439.911
  O     -407.257    -963.471     438.735
  C     -409.407    -963.676     439.868
  O     -409.635    -962.227     439.777
  C     -410.035    -964.273     438.590
  O     -411.293    -964.895     438.808
  C     -410.011    -963.122     437.590
  O     -410.921    -963.257     436.503
  C     -410.243    -961.911     438.521
  N     -411.090    -956.935     437.783
  C     -411.818    -957.833     438.547
  N     -413.014    -957.409     439.010
  N     -411.408    -959.066     438.790
  C     -410.262    -959.403     438.141
  C     -409.473    -958.587     437.367
  C     -409.893    -957.231     437.143
  O     -409.342    -956.420     436.386
  N     -408.402    -959.276     436.861
  C     -408.579    -960.523     437.260
  N     -409.716    -960.649     438.035
  O     -405.251    -962.422     440.130
  O     -404.881    -964.233     438.411
  H     -410.780    -962.515     435.921
  H     -404.531    -964.607     439.267
  H     -411.496    -956.033     437.563
  H     -407.933    -961.372     437.029
  H     -411.308    -961.744     438.681
  H     -408.998    -963.077     437.169
  H     -413.416    -956.530     438.726
  H     -409.407    -965.082     438.196
  H     -413.665    -958.109     439.352
  H     -409.885    -964.041     440.777
  H     -407.452    -963.356     440.751
  H     -407.693    -964.987     440.082
  P     -411.783    -966.379     438.379
  C     -412.648    -967.556     436.282
  O     -412.037    -966.395     436.797
  O     -413.258    -966.535     438.983
  O     -410.889    -967.490     438.880
  H     -413.372    -967.439     439.324
  H     -412.508    -967.581     435.173
  H     -413.715    -967.541     436.490
  H     -412.170    -968.459     436.681
  H     -405.237    -961.620     435.561
  H     -406.359    -962.899     435.960
  H     -404.639    -963.161     436.130

 3  4  5  6  7  8  9  10  11  12  23  26  30  31 0
 6-311+G(2d,p)
 ****
 33  35  36  37  38 0
 6-311+G(2d,p)
 ****
 1  2  13  14  15  16  17  18  19  20  21  22  24  25 0
 3-21G
 ****
 27  28  29  32  34  39  40  41  42  43  44  45  46  47  48  49 0
 3-21G
 ****


