%nproc=1
%NoSave
%Mem=1900MB
#P OB98/GEN NMR

erre ene a

0 1
  C      114.499      21.151      28.148
  O      115.620      21.979      27.914
  H      114.812      20.108      28.068
  H      113.731      21.346      27.396
  H      114.096      21.326      29.148
  P      115.399      23.561      28.073
  C      114.997      23.685      30.631
  O      115.889      23.940      29.556
  C      114.876      24.910      31.536
  O      113.668      24.783      32.343
  C      116.055      25.100      32.503
  O      116.276      26.506      32.661
  C      115.509      24.556      33.813
  O      116.210      25.057      34.949
  C      114.056      25.015      33.711
  N      110.681      25.658      37.386
  C      111.341      26.584      36.602
  N      111.060      27.885      36.830
  N      112.202      26.263      35.673
  C      112.362      24.925      35.530
  C      111.775      23.908      36.244
  C      110.842      24.279      37.288
  O      110.242      23.505      38.028
  N      112.220      22.683      35.815
  C      113.072      22.960      34.844
  N      113.192      24.307      34.635
  O      113.806      23.684      28.158
  O      115.967      24.399      26.979
  H      117.135      24.737      34.897
  H      113.432      23.854      27.273
  H      110.038      25.959      38.096
  H      113.627      22.231      34.270
  H      113.940      26.085      33.924
  H      115.576      23.461      33.826
  H      110.374      28.204      37.495
  H      116.982      24.611      32.187
  H      111.501      28.577      36.235
  H      114.742      25.796      30.906
  H      115.379      22.842      31.218
  H      114.013      23.420      30.229
  P      117.761      27.065      32.442
  C      118.341      27.887      30.044
  O      117.711      28.171      31.284
  O      118.500      25.838      31.726
  O      118.457      27.471      33.699
  H      119.454      25.863      31.927
  H      118.219      28.719      29.383
  H      117.895      27.017      29.608
  H      119.384      27.710      30.206

 6  7  8  9  10  11  12  13  14  15  26  29  33  34 0
 6-311+G(2d,p)
 ****
 36  38  39  40  41 0
 6-311+G(2d,p)
 ****
 1  2  3  4  5  16  17  18  19  20  21  22  23  24  25 0
 3-21G
 ****
 27  28  30  31  32  35  37  42  43  44  45  46  47 0
 3-21G
 ****
 48  49 0
 3-21G
 ****


