%nproc=1
%NoSave
%Mem=1900MB
#P OB98/GEN NMR

erre ene a

0 1
  C        1.386      16.321      -4.345
  O        2.291      16.305      -3.256
  P        3.526      17.322      -3.226
  C        3.696      19.918      -3.271
  O        2.951      18.768      -3.607
  C        3.354      21.091      -4.199
  O        4.007      20.856      -5.470
  C        1.871      21.246      -4.516
  O        1.648      22.567      -5.015
  C        1.684      20.243      -5.632
  O        0.516      20.505      -6.404
  C        3.025      20.346      -6.402
  N        3.450      19.036      -6.927
  C        2.810      18.582      -8.077
  O        1.983      19.253      -8.693
  N        3.090      17.295      -8.448
  C        3.892      16.434      -7.760
  O        3.890      15.220      -7.924
  C        4.717      17.041      -6.704
  C        4.443      18.291      -6.322
  O        4.369      16.894      -4.517
  O        4.349      17.275      -1.985
  H        0.506      19.848      -7.138
  H        5.092      16.290      -4.263
  H        2.518      16.920      -9.194
  H        5.474      16.429      -6.234
  H        5.001      18.747      -5.509
  H        2.948      21.040      -7.248
  H        1.577      19.241      -5.199
  H        1.207      21.044      -3.670
  H        3.758      22.018      -3.777
  H        4.763      19.685      -3.322
  H        3.492      20.213      -2.236
  P        0.224      23.246      -4.731
  C       -1.000      23.933      -2.581
  O       -0.065      23.050      -3.166
  O       -0.886      22.845      -5.644
  O        0.544      24.813      -4.836
  H       -0.284      25.309      -4.977
  H       -1.488      23.427      -1.745
  H       -1.762      24.245      -3.301
  H       -0.475      24.815      -2.205
  H        0.631      15.578      -4.193
  H        1.915      16.112      -5.251
  H        0.928      17.286      -4.414

 3  4  5  6  7  8  9  10  11  12  13  23  28  29  30  31  32 0
 6-311+G(2d,p)
 ****
 33  34 0
 6-311+G(2d,p)
 ****
 1  2  14  15  16  17  18  19  20  21  22  24  25  26  27 0
 3-21G
 ****
 35  36  37  38  39  40  41  42  43  44  45 0
 3-21G
 ****


