%nproc=1
%NoSave
%Mem=1900MB
#P OB98/GEN NMR

erre ene a

0 1
  C      954.360     756.323     -35.305
  O      955.255     757.410     -35.454
  H      954.847     755.420     -35.672
  H      953.457     756.493     -35.900
  H      954.096     756.177     -34.255
  P      954.812     758.853     -34.895
  C      955.436     760.756     -36.505
  O      955.888     759.911     -35.460
  C      956.503     760.881     -37.585
  O      957.772     761.210     -36.958
  C      956.720     759.602     -38.405
  O      956.968     759.970     -39.769
  C      957.956     758.982     -37.806
  O      958.663     758.164     -38.730
  C      958.744     760.222     -37.377
  N      963.602     760.360     -36.004
  C      962.990     760.819     -37.145
  N      963.797     761.370     -38.092
  N      961.709     760.740     -37.361
  C      961.023     760.173     -36.338
  C      961.522     759.688     -35.151
  C      962.941     759.765     -34.931
  O      963.547     759.369     -33.943
  N      960.510     759.162     -34.366
  C      959.416     759.340     -35.089
  N      959.667     759.933     -36.290
  O      954.589     758.927     -33.419
  O      953.484     759.197     -35.718
  H      958.872     758.719     -39.510
  H      952.692     759.016     -35.178
  H      964.606     760.444     -35.893
  H      958.414     759.032     -34.782
  H      959.342     760.655     -38.196
  H      957.690     758.365     -36.936
  H      964.794     761.482     -37.981
  H      955.853     758.921     -38.365
  H      963.355     761.736     -38.933
  H      956.248     761.728     -38.244
  H      955.227     761.747     -36.082
  H      954.512     760.347     -36.942
  P      955.824     759.730     -40.863
  C      957.306     758.938     -42.825
  O      956.468     759.974     -42.319
  O      954.531     760.434     -40.609
  O      955.631     758.132     -40.838
  H      954.705     757.928     -41.074
  H      957.671     759.215     -43.792
  H      956.744     758.031     -42.902
  H      958.132     758.791     -42.161

 6  7  8  9  10  11  12  13  14  15  26  29  33  34 0
 6-311+G(2d,p)
 ****
 36  38  39  40  41 0
 6-311+G(2d,p)
 ****
 1  2  3  4  5  16  17  18  19  20  21  22  23  24  25 0
 3-21G
 ****
 27  28  30  31  32  35  37  42  43  44  45  46  47 0
 3-21G
 ****
 48  49 0
 3-21G
 ****


