%nproc=1
%NoSave
%Mem=1900MB
#P OB98/GEN NMR

erre ene a

0 1
  C      761.767     119.769       2.817
  O      762.605     120.219       1.771
  H      760.800     120.267       2.728
  H      762.203     120.019       3.789
  H      761.610     118.686       2.745
  P      764.093     119.636       1.672
  C      765.605     118.951      -0.329
  O      764.375     119.535       0.088
  C      765.581     118.681      -1.825
  O      764.625     117.643      -2.157
  C      765.173     119.877      -2.698
  O      766.173     120.870      -2.799
  C      764.910     119.164      -4.013
  O      766.165     118.829      -4.632
  C      764.175     117.888      -3.525
  N      762.715     118.028      -3.568
  C      762.077     117.582      -4.734
  O      762.739     117.108      -5.671
  N      760.717     117.717      -4.836
  C      760.053     118.269      -3.864
  N      758.702     118.377      -4.032
  C      760.680     118.771      -2.639
  C      761.996     118.626      -2.540
  O      764.367     118.390       2.447
  O      765.038     120.871       2.088
  H      766.591     119.676      -4.888
  H      765.976     120.554       2.051
  H      760.080     119.248      -1.864
  H      762.539     118.968      -1.673
  H      764.472     117.019      -4.121
  H      764.356     119.765      -4.713
  H      764.226     120.307      -2.336
  H      766.575     118.310      -2.112
  H      758.299     118.027      -4.893
  H      765.756     118.027       0.241
  H      758.117     118.866      -3.356
  H      766.429     119.639      -0.113
  P      765.694     122.399      -2.652
  C      766.935     124.625      -2.079
  O      767.028     123.280      -2.499
  O      765.032     122.439      -1.194
  O      764.761     122.881      -3.718
  H      764.059     122.363      -1.250
  H      767.915     125.053      -2.034
  H      766.483     124.666      -1.110
  H      766.337     125.175      -2.775

 6  7  8  9  10  11  12  13  14  15  16  26  30  31  32  33  35 0
 6-311+G(2d,p)
 ****
 37  38 0
 6-311+G(2d,p)
 ****
 1  2  3  4  5  17  18  19  20  21  22  23  24  25 0
 3-21G
 ****
 27  28  29  34  36  39  40  41  42  43  44  45  46 0
 3-21G
 ****


