%nproc=1
%NoSave
%Mem=1900MB
#P OB98/GEN NMR

erre ene a

0 1
  C     -513.847     185.606    -674.880
  O     -514.026     185.171    -676.209
  H     -514.670     185.213    -674.273
  H     -513.880     186.697    -674.827
  H     -512.903     185.238    -674.474
  P     -512.986     185.640    -677.334
  C     -511.776     183.373    -677.248
  O     -511.652     184.779    -677.065
  C     -510.890     182.608    -676.263
  O     -511.256     182.965    -674.901
  C     -511.003     181.078    -676.389
  O     -509.701     180.500    -676.405
  C     -511.737     180.672    -675.117
  O     -511.481     179.327    -674.736
  C     -511.234     181.743    -674.141
  N     -512.056     181.823    -672.944
  C     -511.988     180.723    -672.070
  O     -511.253     179.773    -672.345
  N     -512.794     180.702    -670.963
  C     -513.617     181.682    -670.754
  N     -514.396     181.595    -669.649
  C     -513.740     182.849    -671.660
  C     -512.940     182.855    -672.719
  O     -512.782     187.113    -677.424
  O     -513.542     185.002    -678.696
  H     -512.067     178.739    -675.257
  H     -513.182     185.516    -679.458
  H     -514.454     183.629    -671.439
  H     -512.963     183.665    -673.442
  H     -510.197     181.548    -673.844
  H     -512.816     180.782    -675.266
  H     -511.545     180.767    -677.279
  H     -509.856     182.944    -676.401
  H     -514.287     180.777    -669.065
  H     -511.499     183.134    -678.287
  H     -515.100     182.271    -669.396
  H     -512.823     183.097    -677.087
  P     -509.069     180.201    -677.848
  C     -507.005     181.758    -677.594
  O     -508.223     181.496    -678.287
  O     -510.345     180.224    -678.824
  O     -508.345     178.903    -677.925
  H     -510.532     179.328    -679.139
  H     -506.553     182.644    -677.989
  H     -506.338     180.931    -677.720
  H     -507.210     181.896    -676.553

 6  7  8  9  10  11  12  13  14  15  16  26  30  31  32  33  35 0
 6-311+G(2d,p)
 ****
 37  38 0
 6-311+G(2d,p)
 ****
 1  2  3  4  5  17  18  19  20  21  22  23  24  25 0
 3-21G
 ****
 27  28  29  34  36  39  40  41  42  43  44  45  46 0
 3-21G
 ****


