%nproc=1
%NoSave
%Mem=1900MB
#P OB98/GEN NMR

erre ene a

0 1
  C      131.279     219.349     164.366
  O      130.375     218.586     165.146
  P      128.854     218.394     164.672
  C      126.812     219.945     164.404
  O      128.181     219.849     164.786
  C      126.085     220.997     165.249
  O      126.057     220.602     166.635
  C      126.742     222.373     165.227
  O      126.443     223.047     164.014
  C      126.137     223.007     166.473
  O      124.832     223.542     166.202
  C      126.043     221.807     167.439
  N      127.117     221.806     168.429
  C      127.029     220.818     169.419
  O      126.071     220.044     169.440
  N      128.003     220.771     170.391
  C      128.966     221.643     170.376
  N      129.895     221.551     171.371
  C      129.074     222.715     169.369
  C      128.127     222.740     168.433
  O      128.112     217.288     165.350
  O      128.991     218.188     163.087
  H      124.452     223.792     167.069
  H      129.345     217.288     162.868
  H      129.889     223.426     169.409
  H      128.130     223.495     167.658
  H      125.084     221.812     167.968
  H      126.752     223.832     166.853
  H      127.827     222.270     165.356
  H      125.051     221.069     164.892
  H      129.764     220.818     172.060
  H      126.340     218.971     164.564
  H      130.658     222.199     171.478
  H      126.743     220.194     163.340
  P      127.609     223.790     163.208
  C      129.502     225.389     163.883
  O      128.179     224.967     164.137
  O      127.268     224.188     161.810
  O      128.809     222.722     163.213
  H      129.203     222.683     162.321
  H      129.647     226.381     164.321
  H      129.695     225.447     162.803
  H      130.202     224.687     164.339
  H      132.237     219.362     164.842
  H      130.913     220.350     164.274
  H      131.369     218.911     163.394

 3  4  5  6  7  8  9  10  11  12  13  23  27  28  29  30  32 0
 6-311+G(2d,p)
 ****
 34  35 0
 6-311+G(2d,p)
 ****
 1  2  14  15  16  17  18  19  20  21  22  24  25  26 0
 3-21G
 ****
 31  33  36  37  38  39  40  41  42  43  44  45  46 0
 3-21G
 ****


