%nproc=1
%NoSave
%Mem=1900MB
#P OB98/GEN NMR

erre ene a

0 1
  C      312.980    -149.028     -50.655
  O      314.012    -148.363     -49.955
  H      312.153    -149.227     -49.968
  H      313.348    -149.980     -51.051
  H      312.611    -148.402     -51.472
  P      315.312    -147.957     -50.798
  C      316.038    -150.352     -51.502
  O      316.318    -149.204     -50.707
  C      317.086    -151.432     -51.228
  O      318.379    -150.993     -51.707
  C      317.277    -151.748     -49.756
  O      316.257    -152.581     -49.237
  C      318.650    -152.400     -49.767
  O      318.570    -153.793     -50.107
  C      319.378    -151.628     -50.872
  N      324.293    -150.322     -50.318
  C      323.694    -151.349     -50.984
  N      322.381    -151.615     -51.087
  C      321.649    -150.678     -50.444
  C      322.117    -149.587     -49.735
  C      323.506    -149.426     -49.679
  N      324.119    -148.401     -48.982
  N      321.055    -148.884     -49.172
  C      319.980    -149.542     -49.562
  N      320.283    -150.623     -50.325
  O      316.006    -146.839     -49.882
  O      315.041    -147.452     -52.181
  H      319.483    -154.135     -50.098
  H      315.790    -145.954     -50.228
  H      324.368    -152.032     -51.486
  H      318.963    -149.265     -49.298
  H      319.977    -152.288     -51.520
  H      319.123    -152.328     -48.786
  H      317.338    -150.813     -49.173
  H      316.804    -152.344     -51.787
  H      316.068    -150.080     -52.562
  H      315.033    -150.715     -51.263
  H      325.120    -148.377     -48.937
  H      323.550    -147.789     -48.410
  P      315.135    -151.917     -48.303
  C      315.916    -152.621     -45.904
  O      315.020    -152.823     -46.988
  O      313.769    -152.177     -49.081
  O      315.349    -150.463     -48.011
  H      313.158    -151.421     -48.956
  H      315.689    -153.313     -45.120
  H      315.813    -151.621     -45.538
  H      316.921    -152.777     -46.238

 6  7  8  9  10  11  12  13  14  15  25  28  32  33  34  35 0
 6-311+G(2d,p)
 ****
 36  37  40 0
 6-311+G(2d,p)
 ****
 1  2  3  4  5  16  17  18  19  20  21  22  23  24 0
 3-21G
 ****
 26  27  29  30  31  38  39 41  42  43  44  45  46  47  48 0
 3-21G
 ****


