%nproc=1
%NoSave
%Mem=1900MB
#P OB98/GEN NMR

erre ene a

0 1
  C     -153.310     266.167     131.148
  O     -154.552     266.212     131.817
  H     -153.283     266.964     130.403
  H     -153.193     265.207     130.637
  H     -152.484     266.316     131.850
  P     -154.781     265.263     133.087
  C     -153.286     266.638     134.680
  O     -154.598     266.181     134.389
  C     -153.121     266.891     136.184
  O     -151.748     267.321     136.434
  C     -154.047     267.987     136.748
  O     -154.314     267.649     138.117
  C     -153.146     269.205     136.643
  O     -153.650     270.313     137.344
  C     -151.830     268.583     137.130
  N     -150.635     269.382     136.892
  C     -149.831     269.689     137.987
  O     -150.058     269.328     139.141
  N     -148.725     270.448     137.717
  C     -148.343     270.907     136.491
  O     -147.322     271.557     136.305
  C     -149.234     270.559     135.375
  C     -150.318     269.820     135.621
  O     -154.004     263.990     133.096
  O     -156.360     264.987     133.071
  H     -156.533     264.099     132.706
  H     -154.026     270.008     138.197
  H     -148.129     270.676     138.497
  H     -148.968     270.916     134.390
  H     -150.990     269.538     134.816
  H     -151.900     268.354     138.201
  H     -153.066     269.521     135.600
  H     -154.991     268.074     136.203
  H     -153.259     265.943     136.718
  H     -153.120     267.571     134.130
  H     -152.561     265.891     134.342
  P     -155.781     267.679     138.764
  C     -156.829     265.334     138.443
  O     -156.116     266.206     139.312
  O     -156.832     268.236     137.862
  O     -155.638     268.559     140.094
  H     -156.498     268.966     140.309
  H     -156.984     264.394     138.930
  H     -156.264     265.183     137.547
  H     -157.775     265.769     138.199

 6  7  8  9  10  11  12  13  14  15  16  27  31  32  33  34  35 0
 6-311+G(2d,p)
 ****
 36  37 0
 6-311+G(2d,p)
 ****
 1  2  3  4  5  17  18  19  20  21  22  23  24  25 0
 3-21G
 ****
 26  28  29  30  38  39  40  41  42  43  44  45 0
 3-21G
 ****


