%nproc=1
%NoSave
%Mem=1900MB
#P OB98/GEN NMR

erre ene a

0 1
  C      653.254     298.301    -145.104
  O      654.111     297.211    -144.838
  H      653.586     298.790    -146.024
  H      653.298     299.030    -144.286
  H      652.229     297.950    -145.244
  P      653.814     296.378    -143.497
  C      655.589     297.874    -142.340
  O      654.258     297.359    -142.308
  C      655.856     298.739    -141.111
  O      655.108     299.965    -141.189
  C      655.459     298.093    -139.787
  O      656.488     297.225    -139.327
  C      655.324     299.314    -138.893
  O      656.630     299.727    -138.434
  C      654.740     300.372    -139.846
  N      650.829     302.441    -137.255
  C      652.134     302.311    -136.945
  N      653.111     301.707    -137.662
  C      652.615     301.200    -138.808
  C      651.300     301.253    -139.248
  C      650.383     301.919    -138.422
  N      649.044     302.050    -138.738
  N      651.172     300.628    -140.470
  C      652.399     300.250    -140.779
  N      653.303     300.545    -139.790
  O      654.381     294.995    -143.457
  O      652.215     296.458    -143.435
  H      656.547     300.667    -138.172
  H      651.909     297.346    -143.687
  H      652.439     302.755    -136.003
  H      652.682     299.793    -141.717
  H      655.183     301.364    -139.671
  H      654.719     299.119    -138.001
  H      654.488     297.585    -139.854
  H      656.923     299.005    -141.112
  H      655.743     298.467    -143.247
  H      648.423     302.361    -138.002
  H      648.704     301.539    -139.538
  H      656.270     297.018    -142.359
  P      656.141     295.837    -138.601
  C      656.417     296.695    -136.192
  O      655.507     296.256    -137.189
  O      657.275     294.875    -138.539
  O      654.887     295.266    -139.414
  H      654.770     294.322    -139.220
  H      655.878     296.944    -135.302
  H      656.943     297.558    -136.544
  H      657.116     295.914    -135.978

 6  7  8  9  10  11  12  13  14  15  25  28  32  33  34  35 0
 6-311+G(2d,p)
 ****
 36  39  40 0
 6-311+G(2d,p)
 ****
 1  2  3  4  5  16  17  18  19  20  21  22  23  24 0
 3-21G
 ****
 26  27  29  30  31  37  38  41  42  43  44  45  46  47 0
 3-21G
 ****
 48 0
 3-21G
 ****


