%nproc=1
%NoSave
%Mem=1900MB
#P OB98/GEN NMR

erre ene a

0 1
  C     -100.209    -348.799     245.194
  O      -98.793    -348.780     245.153
  P      -97.975    -347.831     246.149
  C      -97.302    -345.317     246.156
  O      -97.862    -346.398     245.443
  C      -97.119    -344.091     245.251
  O      -96.215    -344.460     244.182
  C      -98.392    -343.597     244.573
  O      -98.179    -342.260     244.124
  C      -98.489    -344.524     243.382
  O      -99.321    -343.997     242.353
  C      -97.001    -344.725     242.994
  N      -96.748    -346.094     242.509
  C      -97.337    -346.454     241.299
  O      -97.976    -345.661     240.607
  N      -97.237    -347.772     240.953
  C      -96.658    -348.746     241.715
  O      -96.844    -349.947     241.549
  C      -95.855    -348.268     242.852
  C      -95.955    -346.985     243.209
  O      -96.491    -348.420     246.059
  O      -98.480    -347.809     247.550
  H      -98.792    -343.317     241.878
  H      -96.326    -349.035     246.799
  H      -97.785    -348.061     240.153
  H      -95.257    -348.991     243.394
  H      -95.413    -346.616     244.074
  H      -96.694    -344.026     242.206
  H      -98.924    -345.477     243.703
  H      -99.284    -343.650     245.204
  H      -96.648    -343.285     245.827
  H      -96.346    -345.627     246.588
  H      -97.947    -345.045     246.998
  P      -99.144    -341.113     244.696
  C     -101.618    -340.486     244.395
  O     -100.613    -341.449     244.150
  O      -98.688    -339.709     244.483
  O      -99.254    -341.474     246.252
  H      -99.565    -340.699     246.750
  H     -102.363    -340.541     243.598
  H     -101.201    -339.471     244.423
  H     -102.101    -340.702     245.350
  H     -100.578    -349.487     244.462
  H     -100.585    -347.819     244.984
  H     -100.534    -349.105     246.167

 3  4  5  6  7  8  9  10  11  12  13  23  28  29  30  31  32 0
 6-311+G(2d,p)
 ****
 33  34 0
 6-311+G(2d,p)
 ****
 1  2  14  15  16  17  18  19  20  21  22  24  25  26  27 0
 3-21G
 ****
 35  36  37  38  39  40  41  42  43  44  45 0
 3-21G
 ****


