%nproc=1
%NoSave
%Mem=1900MB
#P OB98/GEN NMR

erre ene a

0 1
  C      171.715    -133.655    -101.894
  O      171.761    -133.822    -103.296
  H      171.312    -132.669    -101.655
  H      171.055    -134.416    -101.470
  H      172.710    -133.769    -101.455
  P      172.894    -133.015    -104.094
  C      175.327    -133.521    -104.847
  O      174.201    -133.951    -104.095
  C      176.522    -134.437    -104.590
  O      176.770    -134.480    -103.155
  C      176.329    -135.881    -105.075
  O      177.570    -136.348    -105.614
  C      176.029    -136.641    -103.796
  O      176.369    -138.021    -103.883
  C      176.867    -135.867    -102.785
  N      176.471    -139.352     -99.104
  C      177.227    -139.301    -100.221
  N      177.312    -138.304    -101.125
  C      176.562    -137.255    -100.747
  C      175.745    -137.156     -99.635
  C      175.701    -138.282     -98.794
  N      174.883    -138.371     -97.691
  N      175.091    -135.939     -99.624
  C      175.487    -135.329    -100.725
  N      176.374    -136.085    -101.436
  O      173.271    -131.845    -103.066
  O      172.487    -132.479    -105.425
  H      177.298    -138.100    -104.174
  H      172.678    -131.084    -103.206
  H      177.835    -140.180    -100.422
  H      175.143    -134.361    -101.064
  H      177.924    -136.156    -102.801
  H      174.960    -136.564    -103.566
  H      175.536    -135.994    -105.823
  H      177.408    -133.989    -105.053
  H      175.589    -132.502    -104.547
  H      174.838    -139.256     -97.211
  H      174.223    -137.627     -97.511
  H      175.071    -133.520    -105.911
  P      177.657    -136.546    -107.203
  C      178.158    -135.046    -109.271
  O      178.207    -135.192    -107.856
  O      176.121    -136.576    -107.655
  O      178.377    -137.788    -107.618
  H      176.005    -137.166    -108.421
  H      178.560    -134.093    -109.545
  H      177.143    -135.113    -109.602
  H      178.735    -135.822    -109.730

 6  7  8  9  10  11  12  13  14  15  25  28  32  33  34  35 0
 6-311+G(2d,p)
 ****
 36  39  40 0
 6-311+G(2d,p)
 ****
 1  2  3  4  5  16  17  18  19  20  21  22  23  24 0
 3-21G
 ****
 26  27  29  30  31  37  38  41  42  43  44  45  46  47 0
 3-21G
 ****
 48 0
 3-21G
 ****


