%nproc=1
%NoSave
%Mem=1900MB
#P OB98/GEN NMR

erre ene a

0 1
  C      271.333    -606.505     -94.340
  O      271.741    -605.890     -93.111
  P      271.005    -604.540     -92.650
  C      271.024    -603.704     -90.210
  O      271.795    -603.950     -91.385
  C      271.878    -603.047     -89.122
  O      272.923    -603.924     -88.659
  C      272.583    -601.778     -89.604
  O      271.671    -600.700     -89.723
  C      273.662    -601.618     -88.537
  O      273.125    -600.972     -87.366
  C      274.015    -603.087     -88.204
  N      275.284    -603.510     -88.783
  C      276.323    -603.768     -87.873
  O      276.142    -603.606     -86.674
  N      277.530    -604.206     -88.360
  C      277.685    -604.355     -89.636
  N      278.916    -604.787     -90.062
  C      276.636    -604.082     -90.644
  C      275.469    -603.656     -90.142
  O      269.527    -604.637     -92.488
  O      271.395    -603.504     -93.808
  H      273.797    -601.102     -86.657
  H      270.665    -602.847     -93.903
  H      276.817    -604.222     -91.695
  H      274.634    -603.417     -90.804
  H      274.072    -603.225     -87.122
  H      274.496    -601.014     -88.884
  H      273.059    -601.975     -90.579
  H      271.208    -602.800     -88.280
  H      279.627    -604.957     -89.367
  H      270.619    -604.650     -89.838
  H      279.122    -604.983     -91.030
  H      270.164    -603.073     -90.478
  P      271.533    -599.997     -91.153
  C      269.498    -599.380     -92.644
  O      270.003    -599.574     -91.335
  O      271.701    -601.228     -92.168
  O      272.543    -598.932     -91.443
  H      272.143    -600.931     -92.989
  H      268.418    -599.404     -92.612
  H      269.855    -600.174     -93.324
  H      269.819    -598.411     -93.036
  H      271.913    -607.388     -94.507
  H      271.485    -605.821     -95.149
  H      270.297    -606.765     -94.282

 3  4  5  6  7  8  9  10  11  12  13  23  27  28  29  30  32 0
 6-311+G(2d,p)
 ****
 34  35 0
 6-311+G(2d,p)
 ****
 1  2  14  15  16  17  18  19  20  21  22  24  25  26 0
 3-21G
 ****
 31  33  36  37  38  39  40  41  42  43  44  45  46 0
 3-21G
 ****


