%nproc=1
%NoSave
%Mem=1900MB
#P OB98/GEN NMR

erre ene a

0 1
  C     -249.255     357.022     101.745
  O     -250.345     356.391     102.396
  H     -248.573     356.248     101.386
  H     -248.721     357.661     102.452
  H     -249.607     357.610     100.897
  P     -251.462     357.364     103.020
  C     -251.424     359.137     104.918
  O     -250.807     357.992     104.355
  C     -251.256     359.138     106.431
  O     -249.895     358.854     106.788
  C     -251.616     360.463     107.106
  O     -253.022     360.566     107.312
  C     -250.849     360.354     108.410
  O     -251.556     359.545     109.380
  C     -249.546     359.661     107.957
  N     -246.467     363.231     109.762
  C     -247.396     362.448     110.417
  N     -247.573     362.678     111.733
  N     -248.104     361.525     109.821
  C     -247.847     361.414     108.496
  C     -246.931     362.130     107.747
  C     -246.143     363.133     108.414
  O     -245.249     363.809     107.914
  N     -246.954     361.720     106.433
  C     -247.900     360.799     106.385
  N     -248.477     360.588     107.604
  O     -252.559     356.345     103.602
  O     -252.062     358.342     102.075
  H     -252.364     360.006     109.637
  H     -253.434     356.761     103.549
  H     -245.944     363.914     110.285
  H     -248.199     360.258     105.496
  H     -249.150     358.988     108.715
  H     -250.694     361.334     108.868
  H     -247.323     363.569     112.150
  H     -251.247     361.315     106.514
  H     -248.277     362.129     112.212
  H     -251.886     358.334     106.826
  H     -252.489     359.131     104.661
  H     -250.972     360.039     104.481
  P     -253.642     362.048     107.509
  C     -253.074     364.057     109.048
  O     -252.887     362.674     108.764
  O     -255.113     361.749     108.071
  O     -253.663     362.885     106.273
  H     -255.666     362.548     107.970
  H     -252.505     364.323     109.914
  H     -254.111     364.247     109.230
  H     -252.746     364.640     108.213

 6  7  8  9  10  11  12  13  14  15  26  29  33  34 0
 6-311+G(2d,p)
 ****
 36  38  39  40  41 0
 6-311+G(2d,p)
 ****
 1  2  3  4  5  16  17  18  19  20  21  22  23  24  25 0
 3-21G
 ****
 27  28  30  31  32  35  37  42  43  44  45  46  47 0
 3-21G
 ****
 48  49 0
 3-21G
 ****


