%nproc=1
%NoSave
%Mem=1900MB
#P OB98/GEN NMR

erre ene a

0 1
  C     -129.646      59.346      50.223
  O     -129.888      59.087      51.612
  P     -128.626      59.008      52.596
  C     -127.743      60.702      54.363
  O     -128.257      60.500      53.053
  C     -127.689      62.200      54.685
  O     -126.752      62.897      53.833
  C     -129.021      62.914      54.507
  O     -129.861      62.756      55.645
  C     -128.567      64.362      54.399
  O     -128.303      64.892      55.714
  C     -127.263      64.234      53.598
  N     -126.196      67.256      49.685
  C     -125.821      67.350      51.009
  N     -125.041      68.404      51.341
  N     -126.179      66.493      51.930
  C     -126.942      65.484      51.452
  C     -127.382      65.279      50.161
  C     -126.989      66.245      49.156
  O     -127.304      66.221      47.967
  N     -128.146      64.146      50.065
  C     -128.155      63.653      51.287
  N     -127.454      64.435      52.170
  O     -127.424      58.634      51.601
  O     -128.766      58.007      53.695
  H     -127.618      64.323      56.112
  H     -126.734      58.146      52.087
  H     -125.896      67.950      49.018
  H     -128.650      62.734      51.581
  H     -126.497      64.946      53.928
  H     -129.328      65.003      53.944
  H     -124.684      69.072      50.677
  H     -129.518      62.601      53.579
  H     -124.730      68.471      52.303
  H     -127.358      62.310      55.727
  H     -126.744      60.269      54.451
  H     -128.369      60.160      55.076
  P     -131.252      61.981      55.449
  C     -131.866      59.564      54.723
  O     -130.874      60.442      55.213
  O     -131.739      62.485      54.009
  O     -132.270      62.251      56.503
  H     -132.715      62.510      53.977
  H     -131.394      58.608      54.471
  H     -132.340      59.969      53.826
  H     -132.625      59.387      55.493
  H     -130.577      59.370      49.697
  H     -129.027      58.572      49.818
  H     -129.153      60.289      50.117

 3  4  5  6  7  8  9  10  11  12  23  26  30  31 0
 6-311+G(2d,p)
 ****
 33  35  36  37  38 0
 6-311+G(2d,p)
 ****
 1  2  13  14  15  16  17  18  19  20  21  22  24  25 0
 3-21G
 ****
 27  28  29  32  34  39  40  41  42  43  44  45  46  47  48  49 0
 3-21G
 ****


