%nproc=1
%NoSave
%Mem=1900MB
#P OB98/GEN NMR

erre ene a

0 1
  C     -257.888      70.618     596.493
  O     -257.412      69.280     596.362
  P     -256.657      68.458     597.511
  C     -258.738      67.083     598.332
  O     -257.737      68.048     598.620
  C     -258.354      65.652     598.811
  O     -258.280      65.655     600.266
  C     -259.450      64.661     598.427
  O     -259.457      64.094     597.133
  C     -259.439      63.639     599.555
  O     -258.620      62.506     599.260
  C     -258.867      64.425     600.737
  N     -260.523      63.526     605.502
  C     -259.471      62.952     604.819
  N     -258.797      61.970     605.459
  N     -259.114      63.285     603.604
  C     -259.930      64.213     603.044
  C     -261.008      64.850     603.597
  C     -261.353      64.504     604.970
  O     -262.272      64.994     605.630
  N     -261.602      65.720     602.729
  C     -260.894      65.596     601.627
  N     -259.854      64.698     601.773
  O     -255.381      69.060     597.997
  O     -256.306      67.057     596.800
  H     -258.608      61.927     600.041
  H     -255.452      66.757     597.191
  H     -260.736      63.240     606.438
  H     -261.081      66.126     600.699
  H     -258.059      63.864     601.233
  H     -260.451      63.253     599.733
  H     -259.088      61.582     606.346
  H     -260.412      65.186     598.518
  H     -258.166      61.402     604.890
  H     -257.360      65.389     598.443
  H     -258.882      67.093     597.249
  H     -259.690      67.382     598.782
  P     -260.703      63.342     596.435
  C     -261.644      65.218     594.974
  O     -261.830      64.436     596.142
  O     -261.339      62.480     597.616
  O     -260.336      62.472     595.269
  H     -261.930      61.783     597.244
  H     -262.287      66.111     595.044
  H     -261.942      64.645     594.087
  H     -260.609      65.544     594.876
  H     -258.352      70.923     595.578
  H     -257.067      71.269     596.711
  H     -258.602      70.666     597.288

 3  4  5  6  7  8  9  10  11  12  23  26  30  31 0
 6-311+G(2d,p)
 ****
 33  35  36  37  38 0
 6-311+G(2d,p)
 ****
 1  2  13  14  15  16  17  18  19  20  21  22  24  25 0
 3-21G
 ****
 27  28  29  32  34  39  40  41  42  43  44  45  46  47  48  49 0
 3-21G
 ****


