%nproc=1
%NoSave
%Mem=1900MB
#P OB98/GEN NMR

erre ene a

0 1
  C      516.627    -898.080      17.556
  O      515.808    -896.900      17.589
  P      516.415    -895.580      18.251
  C      514.777    -895.950      20.268
  O      516.094    -895.700      19.822
  C      514.758    -896.290      21.758
  O      515.183    -895.140      22.529
  C      513.398    -896.680      22.298
  O      513.030    -898.000      21.902
  C      513.617    -896.500      23.779
  O      514.295    -897.630      24.331
  C      514.552    -895.270      23.839
  N      513.872    -894.040      24.222
  C      513.450    -893.980      25.550
  O      513.610    -894.890      26.361
  N      512.815    -892.830      25.905
  C      512.536    -891.750      25.115
  O      511.982    -890.760      25.509
  C      512.967    -891.910      23.723
  C      513.607    -893.010      23.338
  O      515.394    -894.470      17.727
  O      517.845    -895.360      17.892
  H      514.477    -894.790      17.652
  H      513.792    -898.440      24.051
  H      512.501    -892.760      26.891
  H      512.729    -891.090      23.035
  H      513.919    -893.150      22.311
  H      515.395    -895.450      24.540
  H      512.695    -896.390      24.343
  H      512.648    -895.980      21.956
  H      515.484    -897.120      21.911
  H      514.360    -896.800      19.697
  H      514.151    -895.080      20.057
  P      512.053    -898.120      20.636
  C      510.101    -897.620      22.294
  O      510.665    -897.390      21.023
  O      511.699    -899.690      20.657
  O      512.653    -897.650      19.351
  H      511.486    -900.000      21.559
  H      509.416    -896.790      22.523
  H      510.852    -897.660      23.073
  H      509.530    -898.570      22.270
  H      516.088    -898.876      17.086
  H      516.883    -898.364      18.555
  H      517.520    -897.879      17.002

 3  4  5  6  7  8  9  10  11  12  13  24  28  29  30  31  32 0
 6-311+G(2d,p)
 ****
 33  34 0
 6-311+G(2d,p)
 ****
 1  2  14  15  16  17  18  19  20  21  22  23  25  26  27 0
 3-21G
 ****
 35  36  37  38  39  40  41  42  43  44  45 0
 3-21G
 ****


