%nproc=1
%NoSave
%Mem=1900MB
#P OB98/GEN NMR

erre ene a

0 1
  C      107.853    -807.494    1009.722
  O      107.205    -808.744    1009.815
  P      107.710    -809.773    1010.962
  C      106.816    -812.204    1011.433
  O      106.528    -810.841    1011.143
  C      105.504    -813.004    1011.620
  O      104.885    -812.604    1012.863
  C      104.474    -812.751    1010.542
  O      104.764    -813.460    1009.350
  C      103.198    -813.228    1011.266
  O      103.109    -814.668    1011.224
  C      103.450    -812.736    1012.703
  N      102.763    -811.510    1013.048
  C      101.374    -811.566    1013.170
  O      100.745    -812.633    1012.987
  N      100.721    -810.406    1013.479
  C      101.297    -809.167    1013.596
  O      100.660    -808.165    1013.842
  C      102.768    -809.163    1013.430
  C      103.409    -810.298    1013.159
  O      107.596    -808.832    1012.245
  O      109.074    -810.330    1010.701
  H      106.908    -808.132    1012.150
  H      102.211    -814.877    1011.491
  H       99.706    -810.447    1013.569
  H      103.249    -808.179    1013.531
  H      104.492    -810.289    1013.045
  H      103.144    -813.526    1013.421
  H      102.279    -812.822    1010.820
  H      104.371    -811.681    1010.327
  H      105.762    -814.070    1011.691
  H      107.413    -812.262    1012.340
  H      107.405    -812.633    1010.596
  P      103.850    -813.103    1008.049
  C      104.121    -814.020    1005.628
  O      104.745    -813.487    1006.789
  O      103.890    -811.514    1008.082
  O      102.487    -813.713    1008.101
  H      104.770    -811.141    1008.288
  H      104.780    -813.885    1004.778
  H      103.160    -813.527    1005.414
  H      103.951    -815.096    1005.763
  H      107.418    -806.925    1008.927
  H      108.894    -807.646    1009.524
  H      107.739    -806.964    1010.644

 3  4  5  6  7  8  9  10  11  12  13  24  28  29  30  31  32 0
 6-311+G(2d,p)
 ****
 33  34 0
 6-311+G(2d,p)
 ****
 1  2  14  15  16  17  18  19  20  21  22  23  25  26  27 0
 3-21G
 ****
 35  36  37  38  39  40  41  42  43  44  45 0
 3-21G
 ****


