%nproc=1
%NoSave
%Mem=1900MB
#P OB98/GEN NMR

erre ene a

0 1
  C       46.595      38.215     -15.255
  O       47.336      38.628     -14.129
  H       46.748      37.142     -15.400
  H       46.952      38.743     -16.143
  H       45.527      38.402     -15.123
  P       46.953      40.009     -13.421
  C       46.834      40.938     -11.016
  O       46.993      39.784     -11.831
  C       46.342      40.576      -9.614
  O       44.992      40.072      -9.689
  C       47.188      39.481      -8.960
  O       48.327      39.955      -8.263
  C       46.187      38.840      -8.002
  O       46.181      39.509      -6.730
  C       44.843      39.030      -8.714
  N       41.933      34.842      -8.357
  C       42.274      35.748      -7.369
  N       41.807      35.476      -6.132
  N       43.014      36.803      -7.585
  C       43.487      36.886      -8.849
  C       43.236      36.040      -9.905
  C       42.355      34.915      -9.676
  O       42.010      34.094     -10.519
  N       43.925      36.420     -11.032
  C       44.655      37.441     -10.629
  N       44.364      37.810      -9.337
  O       45.381      40.152     -13.708
  O       47.692      41.215     -13.916
  H       45.791      40.395      -6.856
  H       45.147      41.095     -13.779
  H       41.337      34.065      -8.137
  H       45.372      37.975     -11.242
  H       44.064      39.356      -8.015
  H       46.447      37.797      -7.808
  H       41.307      34.636      -5.893
  H       47.483      38.729      -9.697
  H       42.188      36.008      -5.346
  H       46.312      41.483      -8.997
  H       46.101      41.573     -11.516
  H       47.772      41.497     -10.960
  P       49.551      38.983      -7.933
  C       51.993      39.282      -7.018
  O       50.765      39.865      -7.394
  O       50.045      38.518      -9.382
  O       49.228      37.821      -7.052
  H       49.686      37.638      -9.602
  H       52.665      40.047      -6.688
  H       52.418      38.772      -7.857
  H       51.828      38.585      -6.223

 6  7  8  9  10  11  12  13  14  15  26  29  33  34 0
 6-311+G(2d,p)
 ****
 36  38  39  40  41 0
 6-311+G(2d,p)
 ****
 1  2  3  4  5  16  17  18  19  20  21  22  23  24  25 0
 3-21G
 ****
 27  28  30  31  32  35  37  42  43  44  45  46  47 0
 3-21G
 ****
 48  49 0
 3-21G
 ****


