%nproc=1
%NoSave
%Mem=1900MB
#P OB98/GEN NMR

erre ene a

0 1
  C     -170.405     898.645    -145.814
  O     -170.756     897.286    -146.100
  P     -169.864     896.504    -147.177
  C     -170.434     894.092    -146.405
  O     -170.520     895.061    -147.438
  C     -171.500     894.329    -145.322
  O     -172.814     894.501    -145.924
  C     -171.619     893.180    -144.319
  O     -172.036     893.723    -143.060
  C     -172.759     892.357    -144.893
  O     -173.326     891.488    -143.915
  C     -173.676     893.475    -145.393
  N     -177.816     890.705    -146.191
  C     -177.106     890.934    -145.025
  N     -177.595     890.368    -143.902
  N     -176.019     891.657    -144.973
  C     -175.668     892.189    -146.168
  C     -176.282     892.029    -147.391
  C     -177.472     891.205    -147.441
  O     -178.132     890.959    -148.447
  N     -175.611     892.706    -148.378
  C     -174.592     893.268    -147.752
  N     -174.603     893.010    -146.409
  O     -168.531     896.161    -146.355
  O     -169.555     897.299    -148.402
  H     -174.074     891.016    -144.342
  H     -167.800     896.718    -146.675
  H     -178.643     890.136    -146.179
  H     -173.824     893.864    -148.220
  H     -174.277     893.912    -144.588
  H     -172.395     891.746    -145.727
  H     -178.455     889.845    -143.870
  H     -170.706     892.595    -144.177
  H     -177.122     890.556    -143.028
  H     -171.259     895.258    -144.793
  H     -169.441     894.117    -145.943
  H     -170.531     893.093    -146.845
  P     -170.881     894.174    -142.048
  C     -171.885     896.198    -140.778
  O     -171.618     894.812    -140.776
  O     -170.211     895.434    -142.770
  O     -169.872     893.111    -141.732
  H     -169.290     895.547    -142.471
  H     -172.951     896.358    -140.992
  H     -171.284     896.734    -141.522
  H     -171.665     896.600    -139.789
  H     -171.079     899.041    -145.083
  H     -170.469     899.226    -146.710
  H     -169.405     898.683    -145.435

 3  4  5  6  7  8  9  10  11  12  23  26  30  31 0
 6-311+G(2d,p)
 ****
 33  35  36  37  38 0
 6-311+G(2d,p)
 ****
 1  2  13  14  15  16  17  18  19  20  21  22  24  25 0
 3-21G
 ****
 27  28  29  32  34  39  40  41  42  43  44  45  46  47  48  49 0
 3-21G
 ****


