%nproc=1
%NoSave
%Mem=1900MB
#P OB98/GEN NMR

erre ene a

0 1
  C      560.805     -36.780     103.412
  O      561.481     -36.880     102.156
  P      561.577     -38.326     101.456
  C      564.052     -39.047     101.701
  O      562.721     -39.184     102.197
  C      564.987     -40.080     102.355
  O      565.027     -39.845     103.784
  C      564.534     -41.545     102.184
  O      564.981     -42.260     101.031
  C      565.205     -42.196     103.394
  O      566.586     -42.513     103.079
  C      565.163     -41.117     104.476
  N      563.985     -42.269     109.317
  C      565.172     -42.169     108.666
  N      565.401     -41.856     107.374
  C      564.244     -41.620     106.737
  C      562.952     -41.690     107.252
  C      562.844     -42.037     108.623
  N      561.638     -42.146     109.272
  N      562.019     -41.390     106.290
  C      562.727     -41.167     105.191
  N      564.080     -41.283     105.410
  O      561.645     -38.314      99.966
  O      560.234     -39.039     101.968
  H      566.991     -42.818     103.909
  H      559.872     -39.589     101.237
  H      566.064     -42.374     109.270
  H      562.300     -40.932     104.220
  H      566.093     -41.071     105.055
  H      564.730     -43.137     103.675
  H      563.450     -41.630     102.278
  H      566.004     -39.960     101.954
  H      564.424     -38.036     101.913
  H      561.648     -42.442     110.237
  H      560.780     -42.022     108.757
  H      564.004     -39.142     100.607
  P      563.942     -42.808      99.941
  C      563.505     -45.341     100.514
  O      563.128     -43.982     100.686
  O      564.551     -43.204      98.633
  O      562.877     -41.626      99.850
  H      562.329     -41.519     100.654
  H      562.980     -45.950     101.260
  H      564.582     -45.462     100.664
  H      563.232     -45.680      99.511
  H      560.824     -35.764     103.747
  H      561.295     -37.402     104.131
  H      559.790     -37.099     103.297

 3  4  5  6  7  8  9  10  11  12  22  25  29  30  31  32 0
 6-311+G(2d,p)
 ****
 33  36  37 0
 6-311+G(2d,p)
 ****
 1  2  13  14  15  16  17  18  19  20  21  23  24  26 0
 3-21G
 ****
 27  28  34  35  38  39  40  41  42  43  44  45  46  47  48 0
 3-21G
 ****


