%nproc=1
%NoSave
%Mem=1900MB
#P OB98/GEN NMR

erre ene a

0 1
  C      252.726     -37.219    -105.256
  O      251.559     -38.013    -105.156
  H      252.506     -36.223    -104.864
  H      253.027     -37.128    -106.306
  H      253.541     -37.660    -104.669
  P      251.705     -39.568    -105.516
  C      252.614     -40.893    -107.594
  O      252.169     -39.658    -107.058
  C      253.727     -40.644    -108.613
  O      254.900     -40.091    -107.987
  C      254.236     -41.908    -109.290
  O      253.310     -42.451    -110.204
  C      255.507     -41.378    -109.941
  O      255.208     -40.663    -111.149
  C      256.034     -40.413    -108.846
  N      257.141     -40.970    -108.088
  C      258.343     -41.115    -108.792
  O      258.419     -40.770    -109.979
  N      259.424     -41.681    -108.148
  C      259.315     -42.040    -106.911
  N      260.412     -42.598    -106.326
  C      258.075     -41.879    -106.121
  C      257.040     -41.352    -106.770
  O      250.182     -40.057    -105.574
  O      252.578     -40.357    -104.594
  H      254.755     -41.301    -111.739
  H      249.627     -39.524    -106.167
  H      258.042     -42.189    -105.083
  H      256.094     -41.200    -106.264
  H      256.361     -39.465    -109.295
  H      256.194     -42.178    -110.204
  H      254.528     -42.648    -108.532
  H      253.354     -39.916    -109.349
  H      261.240     -42.709    -106.909
  H      251.789     -41.447    -108.048
  H      260.442     -42.944    -105.382
  H      252.995     -41.494    -106.762
  P      253.241     -44.039    -110.450
  C      254.904     -45.813    -111.293
  O      254.580     -44.426    -111.248
  O      251.980     -44.527    -111.076
  O      253.525     -44.646    -108.990
  H      254.383     -44.398    -108.606
  H      255.809     -45.950    -111.847
  H      254.110     -46.349    -111.769
  H      255.036     -46.181    -110.297

 6  7  8  9  10  11  12  13  14  15  16  26  30  31  32  33  35 0
 6-311+G(2d,p)
 ****
 37  38 0
 6-311+G(2d,p)
 ****
 1  2  3  4  5  17  18  19  20  21  22  23  24  25 0
 3-21G
 ****
 27  28  29  34  36  39  40  41  42  43  44  45  46 0
 3-21G
 ****


