%nproc=1
%NoSave
%Mem=1900MB
#P OB98/GEN NMR

erre ene a

0 1
  C       62.505      81.991     582.832
  O       63.423      83.068     582.788
  H       62.580      81.504     583.808
  H       62.751      81.263     582.055
  H       61.483      82.353     582.694
  P       63.305      84.052     581.532
  C       61.775      85.971     582.457
  O       61.889      84.809     581.647
  C       61.303      87.152     581.614
  O       62.264      87.464     580.585
  C       60.021      86.893     580.840
  O       58.880      86.870     581.670
  C       60.039      88.061     579.864
  O       59.489      89.248     580.450
  C       61.551      88.237     579.589
  N       61.900      87.848     578.235
  C       61.628      88.805     577.249
  O       61.145      89.894     577.561
  N       61.875      88.488     575.939
  C       62.326      87.310     575.636
  N       62.517      87.047     574.315
  C       62.624      86.273     576.644
  C       62.390      86.605     577.912
  O       63.078      83.037     580.317
  O       64.463      84.974     581.348
  H       59.737      89.987     579.857
  H       62.386      82.377     580.484
  H       63.011      85.311     576.340
  H       62.581      85.904     578.717
  H       61.850      89.282     579.734
  H       59.451      87.846     578.969
  H       60.110      85.963     580.261
  H       61.201      88.023     582.273
  H       62.249      87.766     573.654
  H       62.733      86.204     582.933
  H       62.789      86.143     573.956
  H       61.054      85.755     583.250
  P       57.413      86.668     581.062
  C       57.662      84.215     580.312
  O       57.544      85.571     579.892
  O       56.712      87.919     580.651
  O       56.657      85.842     582.207
  H       57.060      84.983     582.426
  H       57.742      83.581     579.453
  H       56.797      83.941     580.879
  H       58.536      84.105     580.919

 6  7  8  9  10  11  12  13  14  15  16  26  30  31  32  33  35 0
 6-311+G(2d,p)
 ****
 37  38 0
 6-311+G(2d,p)
 ****
 1  2  3  4  5  17  18  19  20  21  22  23  24  25 0
 3-21G
 ****
 27  28  29  34  36  39  40  41  42  43  44  45  46 0
 3-21G
 ****


