%nproc=1
%NoSave
%Mem=1900MB
#P OB98/GEN NMR

erre ene a

0 1
  C      -39.596      72.369      53.520
  O      -40.211      71.127      53.228
  H      -40.343      73.037      53.957
  H      -39.208      72.825      52.602
  H      -38.784      72.225      54.239
  P      -39.287      70.009      52.540
  C      -38.192      69.848      50.198
  O      -39.191      70.460      51.003
  C      -38.656      69.749      48.746
  O      -39.656      68.722      48.613
  C      -39.281      71.028      48.198
  O      -38.272      71.920      47.751
  C      -40.092      70.477      47.033
  O      -39.227      70.270      45.899
  C      -40.584      69.122      47.572
  N      -45.537      70.132      46.657
  C      -44.417      70.411      45.949
  N      -43.131      70.164      46.278
  C      -43.055      69.550      47.472
  C      -44.108      69.206      48.307
  C      -45.403      69.516      47.855
  N      -46.541      69.232      48.580
  N      -43.648      68.594      49.455
  C      -42.342      68.516      49.287
  N      -41.929      69.114      48.120
  O      -39.688      68.594      52.790
  O      -37.843      70.415      53.108
  H      -38.484      69.716      46.208
  H      -37.739      71.385      53.112
  H      -44.578      70.902      44.991
  H      -41.656      68.025      49.966
  H      -40.559      68.344      46.797
  H      -40.881      71.159      46.712
  H      -39.962      71.492      48.923
  H      -37.793      69.445      48.138
  H      -37.958      68.845      50.581
  H      -47.403      69.660      48.272
  H      -46.425      68.892      49.525
  H      -37.287      70.463      50.268
  P      -38.366      73.495      48.055
  C      -39.999      75.317      47.262
  O      -39.386      74.069      46.957
  O      -37.051      74.187      48.147
  O      -39.211      73.586      49.409
  H      -39.101      74.469      49.817
  H      -40.654      75.597      46.463
  H      -39.244      76.065      47.384
  H      -40.560      75.227      48.168

 6  7  8  9  10  11  12  13  14  15  25  28  32  33  34  35 0
 6-311+G(2d,p)
 ****
 36  39  40 0
 6-311+G(2d,p)
 ****
 1  2  3  4  5  16  17  18  19  20  21  22  23  24 0
 3-21G
 ****
 26  27  29  30  31  37  38  41  42  43  44  45  46  47 0
 3-21G
 ****
 48 0
 3-21G
 ****


