%nproc=1
%NoSave
%Mem=1900MB
#P OB98/GEN NMR

erre ene a

0 1
  C       56.768    -195.439    -283.830
  O       56.236    -194.401    -283.034
  P       56.485    -194.389    -281.442
  C       55.752    -196.017    -279.596
  O       55.391    -195.376    -280.810
  C       54.700    -197.053    -279.199
  O       54.504    -198.034    -280.271
  C       55.067    -197.886    -277.986
  O       55.149    -197.228    -276.743
  C       54.064    -199.031    -278.089
  O       52.789    -198.649    -277.574
  C       53.988    -199.227    -279.629
  N       54.713    -200.426    -280.069
  C       53.953    -201.583    -280.189
  O       52.738    -201.627    -279.960
  N       54.628    -202.703    -280.571
  C       55.984    -202.792    -280.783
  O       56.535    -203.853    -281.070
  C       56.736    -201.545    -280.615
  C       56.080    -200.439    -280.270
  O       56.533    -193.037    -280.825
  O       57.845    -195.231    -281.280
  H       52.849    -198.657    -276.597
  H       57.797    -196.149    -281.609
  H       54.107    -203.561    -280.657
  H       57.810    -201.585    -280.789
  H       56.614    -199.495    -280.144
  H       52.938    -199.327    -279.947
  H       54.389    -199.916    -277.534
  H       56.064    -198.323    -278.157
  H       53.743    -196.531    -279.063
  H       55.818    -195.262    -278.804
  H       56.744    -196.475    -279.694
  P       55.842    -197.871    -275.450
  C       55.357    -199.859    -273.863
  O       54.856    -198.975    -274.845
  O       56.481    -196.913    -274.494
  O       56.989    -198.774    -276.104
  H       57.756    -198.829    -275.497
  H       54.558    -200.576    -273.597
  H       55.640    -199.315    -272.963
  H       56.219    -200.421    -274.250
  H       56.500    -195.277    -284.853
  H       56.373    -196.378    -283.502
  H       57.834    -195.449    -283.738

 3  4  5  6  7  8  9  10  11  12  13  23  28  29  30  31  32 0
 6-311+G(2d,p)
 ****
 33  34 0
 6-311+G(2d,p)
 ****
 1  2  14  15  16  17  18  19  20  21  22  24  25  26  27 0
 3-21G
 ****
 35  36  37  38  39  40  41  42  43  44  45 0
 3-21G
 ****


