%nproc=1
%NoSave
%Mem=1900MB
#P OB98/GEN NMR

erre ene a

0 1
  C      562.970    -674.146    -102.324
  O      563.062    -673.747    -103.693
  P      563.716    -674.764    -104.750
  C      562.670    -676.286    -106.546
  O      562.663    -674.998    -105.940
  C      561.402    -676.500    -107.378
  O      560.252    -676.737    -106.552
  C      561.045    -675.297    -108.243
  O      561.914    -675.188    -109.355
  C      559.590    -675.592    -108.570
  O      559.492    -676.512    -109.674
  C      559.091    -676.277    -107.278
  N      558.265    -675.399    -106.452
  C      556.882    -675.645    -106.491
  O      556.432    -676.528    -107.214
  N      556.063    -674.881    -105.699
  C      556.563    -673.947    -104.963
  N      555.698    -673.212    -104.206
  C      558.011    -673.635    -104.896
  C      558.790    -674.395    -105.669
  O      564.306    -676.005    -104.168
  O      564.838    -673.865    -105.457
  H      560.055    -677.280    -109.436
  H      565.580    -674.451    -105.739
  H      558.388    -672.856    -104.258
  H      559.870    -674.243    -105.698
  H      558.502    -677.164    -107.518
  H      559.038    -674.688    -108.853
  H      561.106    -674.382    -107.633
  H      561.573    -677.380    -108.025
  H      554.713    -673.430    -104.272
  H      562.737    -677.055    -105.771
  H      555.996    -672.500    -103.557
  H      563.572    -676.382    -107.162
  P      562.503    -673.742    -109.703
  C      564.909    -672.861    -110.135
  O      564.003    -673.946    -110.235
  O      562.711    -673.086    -108.256
  O      561.622    -672.887    -110.563
  H      562.552    -672.121    -108.302
  H      565.920    -673.246    -110.234
  H      564.817    -672.358    -109.160
  H      564.720    -672.141    -110.927
  H      562.514    -673.363    -101.754
  H      563.951    -674.340    -101.942
  H      562.376    -675.033    -102.250

 3  4  5  6  7  8  9  10  11  12  13  23  27  28  29  30  32 0
 6-311+G(2d,p)
 ****
 34  35 0
 6-311+G(2d,p)
 ****
 1  2  14  15  16  17  18  19  20  21  22  24  25  26 0
 3-21G
 ****
 31  33  36  37  38  39  40  41  42  43  44  45  46 0
 3-21G
 ****


