%nproc=1
%NoSave
%Mem=1900MB
#P OB98/GEN NMR

erre ene a

0 1
  C     -171.074    -337.844     263.216
  O     -171.489    -339.022     263.895
  P     -171.444    -339.003     265.501
  C     -173.275    -340.848     265.517
  O     -171.982    -340.446     265.957
  C     -173.686    -342.156     266.178
  O     -172.932    -343.247     265.605
  C     -173.419    -342.223     267.674
  O     -174.437    -341.566     268.423
  C     -173.449    -343.724     267.914
  O     -174.816    -344.174     268.035
  C     -172.813    -344.275     266.622
  N     -169.195    -347.552     265.265
  C     -170.524    -347.494     264.891
  N     -170.938    -348.431     264.011
  N     -171.369    -346.604     265.346
  C     -170.805    -345.707     266.186
  C     -169.499    -345.658     266.632
  C     -168.589    -346.676     266.160
  O     -167.415    -346.816     266.508
  N     -169.297    -344.588     267.462
  C     -170.464    -343.973     267.498
  N     -171.415    -344.631     266.761
  O     -172.649    -338.022     265.890
  O     -170.155    -338.562     266.094
  H     -175.200    -343.708     268.804
  H     -172.485    -337.626     266.767
  H     -168.582    -348.246     264.871
  H     -170.660    -343.057     268.039
  H     -173.363    -345.154     266.256
  H     -172.931    -344.020     268.833
  H     -170.312    -349.054     263.528
  H     -172.430    -341.830     267.917
  H     -171.904    -348.382     263.695
  H     -174.750    -342.331     265.964
  H     -173.252    -340.987     264.429
  H     -173.992    -340.054     265.754
  P     -173.952    -340.665     269.661
  C     -175.992    -339.052     269.631
  O     -175.297    -340.087     270.307
  O     -173.288    -339.397     268.953
  O     -173.009    -341.353     270.590
  H     -172.617    -338.996     269.541
  H     -175.946    -339.192     268.546
  H     -175.562    -338.087     269.897
  H     -177.040    -339.074     269.936
  H     -171.154    -337.994     262.160
  H     -170.058    -337.626     263.469
  H     -171.698    -337.025     263.508

 3  4  5  6  7  8  9  10  11  12  23  26  30  31  33  0
 6-311+G(2d,p)
 ****
 35  36  37  38 0
 6-311+G(2d,p)
 ****
 1  2  13  14  15  16  17  18  19  20  21  22  24  25  27  28  29 0
 3-21G
 ****
 32  34  39  40  41  42  43  44  45  46  47  48  49 0
 3-21G
 ****


