%nproc=1
%NoSave
%Mem=1900MB
#P OB98/GEN NMR

erre ene a

0 1
  C       60.876     173.719    -174.936
  O       60.079     174.497    -175.834
  P       58.482     174.335    -175.708
  C       56.755     172.430    -176.121
  O       58.117     172.836    -176.150
  C       56.492     171.340    -177.156
  O       56.473     171.884    -178.490
  C       57.547     170.240    -177.191
  O       57.351     169.294    -176.150
  C       57.272     169.613    -178.550
  O       56.183     168.675    -178.447
  C       56.861     170.824    -179.402
  N       59.554     170.000    -183.619
  C       58.527     169.259    -183.062
  N       58.151     168.154    -183.743
  N       57.929     169.572    -181.945
  C       58.390     170.718    -181.389
  C       59.401     171.537    -181.839
  C       60.077     171.161    -183.065
  O       61.013     171.768    -183.580
  N       59.582     172.616    -181.011
  C       58.663     172.465    -180.074
  N       57.925     171.321    -180.252
  O       57.936     175.222    -176.923
  O       57.930     174.781    -174.395
  H       55.390     169.187    -178.203
  H       57.038     175.548    -176.722
  H       59.987     169.709    -184.479
  H       58.491     173.152    -179.257
  H       55.988     170.605    -180.029
  H       58.132     169.058    -178.941
  H       58.517     167.894    -184.646
  H       58.559     170.668    -177.174
  H       57.376     167.619    -183.370
  H       55.504     170.903    -176.946
  H       56.109     173.288    -176.321
  H       56.512     172.080    -175.112
  P       58.640     168.876    -175.289
  C       60.827     167.586    -175.825
  O       59.618     168.125    -176.316
  O       58.086     167.704    -174.351
  O       59.246     169.991    -174.499
  H       58.591     167.672    -173.516
  H       60.676     167.074    -174.871
  H       61.566     168.385    -175.701
  H       61.209     166.862    -176.552
  H       61.912     173.914    -175.118
  H       60.676     172.679    -175.091
  H       60.636     173.982    -173.927

 3  4  5  6  7  8  9  10  11  12  23  26  30  31  33  0
 6-311+G(2d,p)
 ****
 35  36  37  38 0
 6-311+G(2d,p)
 ****
 1  2  13  14  15  16  17  18  19  20  21  22  24  25  27  28  29 0
 3-21G
 ****
 32  34  39  40  41  42  43  44  45  46  47  48  49 0
 3-21G
 ****


