%nproc=1
%NoSave
%Mem=1900MB
#P OB98/GEN NMR

erre ene a

0 1
  C      216.459     -82.098     -51.684
  O      217.096     -80.885     -52.032
  H      216.808     -82.884     -52.357
  H      215.375     -81.996     -51.789
  H      216.709     -82.375     -50.656
  P      216.725     -79.604     -51.143
  C      218.488     -79.588     -49.222
  O      218.104     -79.098     -50.498
  C      218.964     -78.437     -48.329
  O      218.989     -78.899     -46.945
  C      220.382     -77.942     -48.655
  O      220.458     -76.553     -48.295
  C      221.225     -78.764     -47.695
  O      222.530     -78.243     -47.593
  C      220.334     -78.698     -46.458
  N      219.884     -79.921     -41.515
  C      219.384     -78.895     -42.236
  N      219.536     -78.642     -43.551
  C      220.279     -79.598     -44.137
  C      220.848     -80.706     -43.534
  C      220.630     -80.853     -42.153
  N      221.146     -81.892     -41.414
  N      221.546     -81.461     -44.460
  C      221.398     -80.816     -45.600
  N      220.648     -79.683     -45.451
  O      215.932     -80.232     -49.904
  O      215.933     -78.548     -51.837
  H      222.964     -78.215     -48.472
  H      214.971     -80.191     -50.070
  H      218.783     -78.179     -41.681
  H      221.816     -81.118     -46.552
  H      220.370     -77.711     -45.981
  H      221.325     -79.795     -48.049
  H      220.652     -78.061     -49.708
  H      218.234     -77.621     -48.377
  H      219.298     -80.313     -49.359
  H      217.635     -80.086     -48.751
  H      220.956     -81.916     -40.425
  H      221.718     -82.584     -41.873
  P      220.832     -75.471     -49.424
  C      218.650     -74.478     -50.473
  O      219.666     -74.371     -49.487
  O      220.578     -76.299     -50.775
  O      222.228     -74.945     -49.381
  H      221.155     -75.953     -51.482
  H      217.963     -73.665     -50.366
  H      218.129     -75.404     -50.349
  H      219.093     -74.445     -51.446

 6  7  8  9  10  11  12  13  14  15  25  28  32  33  34  35 0
 6-311+G(2d,p)
 ****
 36  37  40 0
 6-311+G(2d,p)
 ****
 1  2  3  4  5  16  17  18  19  20  21  22  23  24 0
 3-21G
 ****
 26  27  29  30  31  38  39 41  42  43  44  45  46  47  48 0
 3-21G
 ****


