%nproc=1
%NoSave
%Mem=1900MB
#P OB98/GEN NMR

erre ene a

0 1
  C     -214.234    -126.060     171.808
  O     -214.715    -126.519     173.057
  P     -214.369    -127.991     173.590
  C     -216.891    -128.480     173.418
  O     -215.579    -128.915     173.071
  C     -217.835    -128.689     172.240
  O     -217.466    -127.770     171.182
  C     -217.808    -130.076     171.595
  O     -218.615    -131.045     172.235
  C     -218.388    -129.767     170.222
  O     -219.820    -129.655     170.313
  C     -217.773    -128.392     169.911
  N     -215.861    -129.706     165.349
  C     -217.121    -129.685     165.829
  N     -217.553    -129.341     167.066
  C     -216.521    -128.945     167.822
  C     -215.176    -128.913     167.475
  C     -214.859    -129.314     166.166
  N     -213.570    -129.313     165.675
  N     -214.405    -128.465     168.537
  C     -215.275    -128.231     169.503
  N     -216.561    -128.498     169.116
  O     -214.071    -128.071     175.048
  O     -213.144    -128.461     172.679
  H     -220.143    -129.401     169.426
  H     -212.692    -129.228     173.093
  H     -217.900    -129.985     165.127
  H     -215.015    -127.876     170.476
  H     -218.470    -127.731     169.379
  H     -218.169    -130.539     169.481
  H     -216.773    -130.434     171.474
  H     -218.860    -128.434     172.565
  H     -216.850    -127.410     173.658
  H     -213.446    -129.490     164.687
  H     -212.848    -128.868     166.223
  H     -217.241    -129.017     174.303
  P     -217.860    -132.225     173.031
  C     -218.090    -133.876     171.018
  O     -217.242    -133.179     171.905
  O     -218.696    -132.907     174.068
  O     -216.567    -131.481     173.634
  H     -215.924    -131.181     172.975
  H     -217.478    -134.332     170.228
  H     -218.805    -133.199     170.546
  H     -218.622    -134.667     171.547
  H     -214.575    -125.060     171.640
  H     -214.599    -126.697     171.029
  H     -213.164    -126.077     171.810

 3  4  5  6  7  8  9  10  11  12  22  25  29  30  31  32 0
 6-311+G(2d,p)
 ****
 33  36  37 0
 6-311+G(2d,p)
 ****
 1  2  13  14  15  16  17  18  19  20  21  23  24  26 0
 3-21G
 ****
 27  28  34  35  38  39  40  41  42  43  44  45  46  47  48 0
 3-21G
 ****


