%nproc=1
%NoSave
%Mem=1900MB
#P OB98/GEN NMR

erre ene a

0 1
  C     -317.323      54.851     -69.257
  O     -318.221      55.591     -70.057
  H     -316.432      54.621     -69.849
  H     -317.783      53.912     -68.938
  H     -317.026      55.436     -68.385
  P     -319.646      55.945     -69.410
  C     -320.958      54.557     -71.175
  O     -320.643      54.752     -69.800
  C     -322.340      53.925     -71.296
  O     -322.290      52.546     -70.854
  C     -323.405      54.586     -70.431
  O     -323.905      55.785     -70.999
  C     -324.456      53.491     -70.381
  O     -325.318      53.527     -71.525
  C     -323.603      52.208     -70.364
  N     -323.554      51.606     -69.034
  C     -324.372      50.493     -68.846
  O     -325.094      50.025     -69.727
  N     -324.360      49.952     -67.591
  C     -323.670      50.432     -66.519
  O     -323.748      49.932     -65.404
  C     -322.837      51.623     -66.771
  C     -322.820      52.149     -68.000
  O     -320.154      57.174     -70.300
  O     -319.611      56.283     -67.958
  H     -320.085      58.001     -69.788
  H     -324.733      53.478     -72.305
  H     -324.943      49.142     -67.434
  H     -322.276      52.029     -65.941
  H     -322.223      53.028     -68.208
  H     -324.017      51.467     -71.061
  H     -325.084      53.595     -69.499
  H     -323.019      54.759     -69.419
  H     -322.639      53.939     -72.352
  H     -320.219      53.888     -71.630
  H     -320.920      55.522     -71.688
  P     -324.422      56.928     -69.996
  C     -326.785      55.795     -69.779
  O     -325.605      56.258     -69.144
  O     -325.162      57.909     -71.024
  O     -323.323      57.550     -69.200
  H     -325.484      57.434     -71.809
  H     -327.447      55.385     -69.046
  H     -326.533      55.040     -70.494
  H     -327.266      56.611     -70.277

 6  7  8  9  10  11  12  13  14  15  16  27  31  32  33  34  35 0
 6-311+G(2d,p)
 ****
 36  37 0
 6-311+G(2d,p)
 ****
 1  2  3  4  5  17  18  19  20  21  22  23  24  25 0
 3-21G
 ****
 26  28  29  30  38  39  40  41  42  43  44  45 0
 3-21G
 ****


