%nproc=1
%NoSave
%Mem=1900MB
#P OB98/GEN NMR

erre ene a

0 1
  C      -11.594      19.280    -218.313
  O      -10.247      19.275    -218.830
  P       -9.067      19.925    -217.948
  C       -8.526      17.593    -216.913
  O       -8.029      18.796    -217.483
  C       -7.693      16.377    -217.354
  O       -8.101      15.949    -218.690
  C       -6.176      16.631    -217.414
  O       -5.530      15.392    -217.075
  C       -5.952      16.952    -218.883
  O       -4.600      16.793    -219.290
  C       -6.926      15.954    -219.529
  N       -7.276      16.269    -220.915
  C       -6.321      16.029    -221.898
  O       -5.184      15.631    -221.681
  N       -6.713      16.301    -223.188
  C       -7.922      16.819    -223.572
  O       -8.197      17.059    -224.740
  C       -8.876      17.077    -222.489
  C       -8.520      16.799    -221.234
  O       -9.830      20.273    -216.580
  O       -8.445      21.162    -218.520
  H       -4.096      17.527    -218.891
  H       -9.595      21.176    -216.292
  H       -6.044      16.119    -223.915
  H       -9.850      17.480    -222.750
  H       -9.216      16.973    -220.416
  H       -6.502      14.951    -219.482
  H       -6.240      17.991    -219.073
  H       -5.847      17.430    -216.741
  H       -7.917      15.543    -216.675
  H       -9.566      17.442    -217.230
  H       -8.506      17.679    -215.823
  P       -5.101      15.151    -215.538
  C       -7.259      14.086    -214.492
  O       -5.952      13.904    -215.006
  O       -5.818      16.412    -214.842
  O       -3.628      15.111    -215.306
  H       -6.733      16.541    -215.148
  H       -7.826      14.807    -215.101
  H       -7.207      14.442    -213.460
  H       -7.784      13.133    -214.508
  H      -12.249      18.813    -219.019
  H      -11.909      20.289    -218.148
  H      -11.623      18.741    -217.389

 3  4  5  6  7  8  9  10  11  12  13  23  28  29  30  31  32 0
 6-311+G(2d,p)
 ****
 33  34 0
 6-311+G(2d,p)
 ****
 1  2  14  15  16  17  18  19  20  21  22  24  25  26 0
 3-21G
 ****
 27  35  36  37  38  39  40  41  42  43  44  45 0
 3-21G
 ****


