%nproc=1
%NoSave
%Mem=1900MB
#P OB98/GEN NMR

erre ene a

0 1
  C       27.274     243.074      48.768
  O       28.501     242.998      49.495
  P       29.469     241.744      49.283
  C       27.935     240.150      50.624
  O       28.616     240.391      49.399
  C       27.303     238.756      50.609
  O       28.170     237.786      49.979
  C       27.052     238.202      52.007
  O       26.041     238.826      52.770
  C       26.908     236.714      51.742
  O       25.584     236.382      51.322
  C       27.916     236.502      50.589
  N       29.156     235.868      51.032
  C       29.081     234.505      51.309
  O       28.038     233.857      51.238
  N       30.248     233.913      51.710
  C       31.447     234.543      51.889
  O       32.457     233.968      52.272
  C       31.457     235.987      51.602
  C       30.333     236.574      51.194
  O       30.739     241.762      50.062
  O       29.784     241.808      47.706
  H       25.405     236.881      50.502
  H       30.731     241.597      47.583
  H       30.220     232.926      51.908
  H       32.389     236.520      51.737
  H       30.318     237.636      50.978
  H       27.476     235.866      49.808
  H       27.114     236.121      52.639
  H       27.979     238.329      52.588
  H       26.378     238.799      50.027
  H       27.167     240.913      50.778
  H       28.642     240.257      51.453
  P       26.345     239.915      53.908
  C       26.874     238.324      55.885
  O       27.362     239.273      54.964
  O       25.182     240.675      54.452
  O       27.298     240.941      53.118
  H       27.137     241.837      53.460
  H       27.694     238.010      56.532
  H       26.485     237.445      55.359
  H       26.089     238.762      56.504
  H       26.758     243.973      49.033
  H       26.664     242.228      49.009
  H       27.481     243.077      47.718

 3  4  5  6  7  8  9  10  11  12  13  23  28  29  30  31  32 0
 6-311+G(2d,p)
 ****
 33  34 0
 6-311+G(2d,p)
 ****
 1  2  14  15  16  17  18  19  20  21  22  24  25  26  27 0
 3-21G
 ****
 35  36  37  38  39  40  41  42  43  44  45 0
 3-21G
 ****


