%nproc=1
%NoSave
%Mem=1900MB
#P OB98/GEN NMR

erre ene a

0 1
  C      115.038    -245.827    -837.351
  O      115.750    -245.854    -836.130
  H      115.696    -246.124    -838.175
  H      114.204    -246.527    -837.286
  H      114.646    -244.819    -837.524
  P      117.078    -244.970    -836.056
  C      115.910    -243.571    -834.204
  O      117.082    -244.263    -834.607
  C      115.783    -243.581    -832.686
  O      115.529    -244.927    -832.218
  C      117.026    -243.126    -831.935
  O      117.144    -241.713    -831.912
  C      116.737    -243.679    -830.549
  O      115.831    -242.810    -829.849
  C      116.037    -245.023    -830.865
  N      119.007    -247.817    -827.752
  C      118.263    -246.713    -827.528
  N      117.514    -246.020    -828.401
  C      117.546    -246.582    -829.633
  C      118.272    -247.700    -829.999
  C      119.039    -248.333    -829.007
  N      119.812    -249.453    -829.242
  N      118.065    -247.991    -831.338
  C      117.255    -247.051    -831.768
  N      116.916    -246.172    -830.770
  O      116.776    -243.750    -837.056
  O      118.345    -245.667    -836.437
  H      114.943    -242.989    -830.209
  H      117.597    -243.498    -837.517
  H      118.249    -246.346    -826.509
  H      116.864    -246.978    -832.778
  H      115.170    -245.180    -830.204
  H      117.628    -243.785    -829.933
  H      117.928    -243.600    -832.342
  H      114.909    -242.963    -832.424
  H      115.029    -244.061    -834.647
  H      120.169    -249.969    -828.463
  H      119.809    -249.833    -830.185
  H      115.953    -242.540    -834.577
  P      118.557    -241.069    -832.333
  C      117.742    -240.388    -834.715
  O      118.226    -239.954    -833.439
  O      119.232    -242.237    -833.196
  O      119.414    -240.645    -831.199
  H      120.211    -242.165    -833.166
  H      117.568    -239.536    -835.339
  H      116.827    -240.927    -834.585
  H      118.469    -241.025    -835.174

 6  7  8  9  10  11  12  13  14  15  25  28  32  33  34  35 0
 6-311+G(2d,p)
 ****
 36  39  40 0
 6-311+G(2d,p)
 ****
 1  2  3  4  5  16  17  18  19  20  21  22  23  24 0
 3-21G
 ****
 26  27  29  30  31  37  38  41  42  43  44  45  46  47  48 0
 3-21G
 ****


