%nproc=1
%NoSave
%Mem=1900MB
#P OB98/GEN NMR

erre ene a

0 1
  C     1006.747     -33.660    -333.913
  O     1005.643     -32.811    -334.164
  P     1004.584     -33.204    -335.301
  C     1003.610     -30.866    -334.840
  O     1003.908     -31.843    -335.830
  C     1003.366     -29.508    -335.501
  O     1004.614     -28.957    -335.982
  C     1002.449     -29.559    -336.711
  O     1001.094     -29.684    -336.318
  C     1002.799     -28.241    -337.400
  O     1002.084     -27.157    -336.783
  C     1004.289     -28.122    -337.124
  N     1006.035     -26.675    -341.696
  C     1005.115     -26.129    -340.877
  N     1004.673     -26.593    -339.684
  C     1005.281     -27.766    -339.385
  C     1006.209     -28.442    -340.139
  C     1006.617     -27.853    -341.347
  N     1007.605     -28.358    -342.165
  N     1006.577     -29.621    -339.502
  C     1005.865     -29.650    -338.401
  N     1005.115     -28.517    -338.253
  O     1003.623     -34.288    -334.934
  O     1005.501     -33.660    -336.536
  H     1002.252     -26.355    -337.327
  H     1005.295     -34.578    -336.763
  H     1004.674     -25.196    -341.213
  H     1005.871     -30.448    -337.658
  H     1004.576     -27.096    -336.852
  H     1002.553     -28.248    -338.478
  H     1002.740     -30.382    -337.367
  H     1002.961     -28.829    -334.746
  H     1004.472     -30.796    -334.165
  H     1007.919     -27.777    -342.920
  H     1008.252     -29.042    -341.777
  H     1002.727     -31.179    -334.272
  P     1000.025     -30.260    -337.345
  C      998.100     -29.151    -336.042
  O      998.757     -29.284    -337.293
  O      999.700     -31.718    -337.204
  O     1000.647     -29.934    -338.789
  H     1000.395     -30.628    -339.423
  H      997.472     -30.028    -335.873
  H      997.493     -28.253    -336.058
  H      998.849     -29.066    -335.236
  H     1007.345     -33.245    -333.128
  H     1007.337     -33.750    -334.801
  H     1006.394     -34.627    -333.620

 3  4  5  6  7  8  9  10  11  12  22  25  29  30  31  32 0
 6-311+G(2d,p)
 ****
 33  36  37 0
 6-311+G(2d,p)
 ****
 1  2  13  14  15  16  17  18  19  20  21  23  24  26 0
 3-21G
 ****
 27  28  34  35  38  39  40  41  42  43  44  45  46  47  48 0
 3-21G
 ****


