%nproc=1
%NoSave
%Mem=1900MB
#P OB98/GEN NMR

erre ene a

0 1
  C      584.304     308.192    -122.722
  O      584.820     309.395    -123.241
  P      585.849     310.342    -122.462
  C      583.918     311.353    -121.004
  O      585.199     310.730    -121.036
  C      584.039     312.827    -120.618
  O      582.710     313.421    -120.632
  C      584.576     312.994    -119.185
  O      585.534     314.045    -119.026
  C      583.303     313.093    -118.345
  O      583.497     313.677    -117.069
  C      582.366     313.845    -119.293
  N      578.304     314.717    -116.350
  C      579.525     315.362    -116.364
  N      579.765     316.221    -115.339
  N      580.456     315.141    -117.283
  C      580.124     314.186    -118.172
  C      578.942     313.479    -118.259
  C      577.923     313.746    -117.260
  O      576.862     313.119    -117.156
  N      578.984     312.522    -119.240
  C      580.214     312.626    -119.733
  N      580.948     313.596    -119.089
  O      586.501     311.415    -123.261
  O      586.994     309.289    -122.032
  H      583.661     314.619    -117.196
  H      587.837     309.764    -122.045
  H      577.676     314.863    -115.575
  H      580.620     312.015    -120.520
  H      582.504     314.920    -119.224
  H      582.949     312.067    -118.178
  H      579.131     316.288    -114.557
  H      585.139     312.096    -118.876
  H      580.737     316.506    -115.196
  H      584.653     313.348    -121.365
  H      583.323     310.806    -120.263
  H      583.413     311.241    -121.967
  P      586.984     313.984    -118.387
  C      586.243     315.320    -116.320
  O      586.855     314.126    -116.789
  O      587.679     315.370    -118.813
  O      587.818     312.828    -118.835
  H      588.615     315.216    -119.037
  H      586.453     315.418    -115.248
  H      585.168     315.258    -116.457
  H      586.637     316.190    -116.852
  H      583.640     307.751    -123.436
  H      583.771     308.394    -121.817
  H      585.109     307.517    -122.519

 3  4  5  6  7  8  9  10  11  12  23  26  30  31 0
 6-311+G(2d,p)
 ****
 33  35  36  37  38 0
 6-311+G(2d,p)
 ****
 1  2  13  14  15  16  17  18  19  20  21  22  24  25 0
 3-21G
 ****
 27  28  29  32  34  39  40  41  42  43  44  45  46  47  48  49 0
 3-21G
 ****


