%nproc=1
%NoSave
%Mem=1900MB
#P OB98/GEN NMR

erre ene a

0 1
  C      -17.888    -314.368    -306.645
  O      -19.040    -314.256    -307.447
  H      -17.060    -314.712    -307.274
  H      -18.044    -315.105    -305.853
  H      -17.621    -313.400    -306.212
  P      -20.428    -313.809    -306.775
  C      -21.534    -315.970    -307.609
  O      -21.212    -315.183    -306.470
  C      -22.923    -316.597    -307.470
  O      -22.862    -317.708    -306.537
  C      -23.995    -315.620    -306.954
  O      -25.172    -315.731    -307.758
  C      -24.288    -316.124    -305.548
  O      -25.584    -315.756    -305.083
  C      -24.046    -317.627    -305.723
  N      -23.893    -318.309    -304.445
  C      -25.053    -318.872    -303.906
  O      -26.127    -318.784    -304.507
  N      -24.986    -319.475    -302.676
  C      -23.868    -319.469    -302.020
  N      -23.875    -320.060    -300.795
  C      -22.625    -318.861    -302.540
  C      -22.709    -318.308    -303.750
  O      -21.204    -312.800    -307.552
  O      -20.029    -313.301    -305.312
  H      -26.253    -316.148    -305.682
  H      -20.736    -312.703    -304.976
  H      -21.721    -318.878    -301.953
  H      -21.849    -317.836    -304.214
  H      -24.872    -318.097    -306.276
  H      -23.546    -315.706    -304.854
  H      -23.661    -314.583    -306.946
  H      -23.211    -317.024    -308.439
  H      -24.748    -320.456    -300.472
  H      -20.774    -316.747    -307.724
  H      -23.073    -320.094    -300.182
  H      -21.526    -315.321    -308.491
  P      -25.315    -314.665    -308.952
  C      -27.016    -313.310    -307.527
  O      -25.835    -313.282    -308.321
  O      -26.569    -315.205    -309.780
  O      -24.096    -314.555    -309.801
  H      -26.272    -315.556    -310.643
  H      -27.235    -312.322    -307.179
  H      -26.867    -313.958    -306.689
  H      -27.833    -313.671    -308.116

 6  7  8  9  10  11  12  13  14  15  16  26  30  31  32  33  35 0
 6-311+G(2d,p)
 ****
 37  38 0
 6-311+G(2d,p)
 ****
 1  2  3  4  5  17  18  19  20  21  22  23  24  25 0
 3-21G
 ****
 27  28  29  34  36  39  40  41  42  43  44  45  46 0
 3-21G
 ****


