%nproc=1
%NoSave
%Mem=1900MB
#P OB98/GEN NMR

erre ene a

0 1
  C      277.055    -242.900     222.542
  O      278.401    -242.516     222.341
  H      276.514    -242.061     222.988
  H      277.010    -243.753     223.224
  H      276.585    -243.157     221.589
  P      279.330    -243.544     221.528
  C      280.905    -241.799     220.354
  O      280.739    -242.800     221.343
  C      281.119    -240.430     221.001
  O      279.994    -240.149     221.873
  C      282.395    -240.339     221.839
  O      282.930    -239.020     221.705
  C      281.895    -240.536     223.261
  O      282.787    -239.985     224.225
  C      280.514    -239.863     223.189
  N      279.612    -240.330     224.239
  C      280.086    -240.260     225.552
  O      281.220    -239.833     225.780
  N      279.290    -240.710     226.571
  C      278.141    -241.247     226.301
  N      277.408    -241.698     227.354
  C      277.618    -241.383     224.927
  C      278.393    -240.900     223.956
  O      278.677    -243.490     220.067
  O      279.404    -244.910     222.120
  H      283.511    -240.629     224.384
  H      278.471    -242.589     219.769
  H      276.660    -241.849     224.751
  H      278.084    -240.951     222.920
  H      280.614    -238.773     223.278
  H      281.786    -241.604     223.476
  H      283.147    -241.076     221.548
  H      281.108    -239.667     220.215
  H      277.813    -241.606     228.276
  H      280.026    -241.760     219.702
  H      276.527    -242.183     227.257
  H      281.770    -242.070     219.741
  P      283.931    -238.695     220.499
  C      283.376    -236.172     220.636
  O      284.395    -237.164     220.596
  O      283.483    -239.141     219.149
  O      285.265    -239.482     220.929
  H      285.639    -239.895     220.127
  H      283.824    -235.203     220.700
  H      282.754    -236.334     221.491
  H      282.784    -236.233     219.747

 6  7  8  9  10  11  12  13  14  15  16  26  30  31  32  33  35 0
 6-311+G(2d,p)
 ****
 37  38 0
 6-311+G(2d,p)
 ****
 1  2  3  4  5  17  18  19  20  21  22  23  24  25 0
 3-21G
 ****
 27  28  29  34  36  39  40  41  42  43  44  45  46 0
 3-21G
 ****


