%nproc=1
%NoSave
%Mem=1900MB
#P OB98/GEN NMR

erre ene a

0 1
  C      147.898    -383.384    -210.750
  O      148.555    -382.716    -209.693
  H      148.609    -384.057    -211.236
  H      147.545    -382.655    -211.484
  H      147.059    -383.970    -210.367
  P      147.667    -381.739    -208.783
  C      147.697    -383.144    -206.602
  O      146.930    -382.675    -207.699
  C      147.421    -382.314    -205.352
  O      146.031    -382.508    -204.956
  C      148.298    -382.672    -204.144
  O      148.563    -381.468    -203.410
  C      147.379    -383.538    -203.298
  O      147.772    -383.593    -201.930
  C      146.042    -382.841    -203.547
  N      142.508    -383.551    -200.040
  C      143.480    -382.580    -200.144
  N      143.524    -381.652    -199.161
  N      144.343    -382.524    -201.126
  C      144.163    -383.496    -202.056
  C      143.241    -384.515    -202.066
  C      142.311    -384.583    -200.954
  O      141.438    -385.430    -200.800
  N      143.404    -385.318    -203.169
  C      144.416    -384.781    -203.829
  N      144.908    -383.672    -203.188
  O      146.486    -381.315    -209.782
  O      148.381    -380.555    -208.225
  H      148.624    -384.069    -201.883
  H      146.708    -380.477    -210.227
  H      141.877    -383.558    -199.253
  H      144.829    -385.150    -204.755
  H      145.951    -381.908    -202.979
  H      147.361    -384.567    -203.695
  H      142.868    -381.604    -198.400
  H      149.239    -383.163    -204.396
  H      144.206    -380.899    -199.245
  H      147.530    -381.250    -205.610
  H      148.763    -383.068    -206.854
  H      147.453    -384.194    -206.414
  P      149.839    -380.590    -203.836
  C      148.532    -378.815    -205.219
  O      149.497    -379.861    -205.219
  O      150.906    -381.706    -204.282
  O      150.378    -379.719    -202.751
  H      151.808    -381.373    -204.141
  H      148.418    -378.435    -206.213
  H      148.858    -378.029    -204.571
  H      147.594    -379.195    -204.873

 6  7  8  9  10  11  12  13  14  15  26  29  33  34 0
 6-311+G(2d,p)
 ****
 36  38  39  40  41 0
 6-311+G(2d,p)
 ****
 1  2  3  4  5  16  17  18  19  20  21  22  23  24  25 0
 3-21G
 ****
 27  28  30  31  32  35  37  42  43  44  45  46  47 0
 3-21G
 ****
 48  49 0
 3-21G
 ****


