%nproc=1
%NoSave
%Mem=1900MB
#P OB98/GEN NMR

erre ene a

0 1
  C      147.736    -895.740      72.432
  O      148.128    -895.370      71.125
  H      146.888    -895.120      72.713
  H      148.547    -895.560      73.132
  H      147.422    -896.780      72.452
  P      149.408    -896.090      70.474
  C      151.458    -895.430      71.902
  O      150.429    -896.390      71.668
  C      152.117    -895.660      73.256
  O      152.847    -896.920      73.175
  C      153.118    -894.560      73.646
  O      152.873    -894.000      74.935
  C      154.477    -895.200      73.383
  O      155.530    -894.660      74.158
  C      154.202    -896.690      73.619
  N      155.129    -897.580      72.921
  C      156.106    -898.220      73.686
  O      156.231    -898.110      74.903
  N      156.959    -899.040      72.990
  C      156.955    -899.260      71.642
  O      157.753    -900.000      71.075
  C      155.919    -898.530      70.890
  C      155.072    -897.740      71.551
  O      150.005    -895.400      69.300
  O      148.869    -897.550      70.088
  H      155.335    -894.870      75.088
  H      148.745    -897.600      69.120
  H      157.651    -899.510      73.536
  H      155.890    -898.670      69.815
  H      154.295    -897.190      71.012
  H      154.261    -896.930      74.683
  H      154.742    -895.050      72.329
  H      152.998    -893.690      72.976
  H      151.338    -895.790      74.018
  H      150.999    -894.430      71.866
  H      152.209    -895.500      71.103
  P      151.951    -892.730      75.231
  C      153.364    -890.560      74.787
  O      152.459    -891.530      74.298
  O      151.718    -892.420      76.669
  O      150.532    -893.120      74.576
  H      149.859    -892.690      75.126
  H      153.577    -889.850      74.015
  H      154.271    -891.040      75.091
  H      152.929    -890.056      75.625

 6  7  8  9  10  11  12  13  14  15  16  26  31  32  33  34  35 0
 6-311+G(2d,p)
 ****
 36  37 0
 6-311+G(2d,p)
 ****
 1  2  3  4  5  17  18  19  20  21  22  23  24  25 0
 3-21G
 ****
 27  28  29  30  38  39  40  41  42  43  44  45 0
 3-21G
 ****


