%nproc=1
%NoSave
%Mem=1900MB
#P OB98/GEN NMR

erre ene a

0 1
  C      145.453      67.327      36.858
  O      146.745      67.854      36.632
  H      144.754      67.800      36.163
  H      145.139      67.552      37.880
  H      145.438      66.246      36.692
  P      147.974      67.071      37.305
  C      148.704      64.582      37.412
  O      147.657      65.505      37.150
  C      148.153      63.338      38.102
  O      147.726      63.655      39.445
  C      146.948      62.714      37.405
  O      147.345      61.859      36.341
  C      146.342      61.918      38.548
  O      147.107      60.709      38.757
  C      146.536      62.869      39.737
  N      142.657      63.979      42.811
  C      143.552      62.927      42.857
  N      143.382      62.040      43.861
  N      144.521      62.754      41.996
  C      144.554      63.706      41.033
  C      143.721      64.791      40.877
  C      142.664      64.978      41.845
  O      141.852      65.900      41.854
  N      144.062      65.536      39.779
  C      145.087      64.890      39.259
  N      145.423      63.771      39.980
  O      147.757      67.351      38.868
  O      149.328      67.509      36.858
  H      146.676      60.221      39.481
  H      148.382      68.043      39.154
  H      141.923      64.059      43.492
  H      145.623      65.193      38.370
  H      146.720      62.331      40.673
  H      145.314      61.611      38.350
  H      142.644      62.100      44.545
  H      146.234      63.476      37.069
  H      144.029      61.262      43.916
  H      148.971      62.610      38.184
  H      149.446      65.060      38.060
  H      149.179      64.304      36.465
  P      146.311      61.614      35.138
  C      145.249      63.168      33.353
  O      145.802      63.061      34.659
  O      145.040      61.000      35.889
  O      146.796      60.710      34.058
  H      144.928      60.060      35.641
  H      144.955      64.181      33.172
  H      144.394      62.529      33.274
  H      145.981      62.874      32.630

 6  7  8  9  10  11  12  13  14  15  26  29  33  34 0
 6-311+G(2d,p)
 ****
 36  38  39  40  41 0
 6-311+G(2d,p)
 ****
 1  2  3  4  5  16  17  18  19  20  21  22  23  24  25 0
 3-21G
 ****
 27  28  30  31  32  35  37  42  43  44  45  46  47 0
 3-21G
 ****
 48  49 0
 3-21G
 ****


