%nproc=1
%NoSave
%Mem=1900MB
#P OB98/GEN NMR

erre ene a

0 1
  C     -442.211     188.830     925.990
  O     -441.737     187.505     926.125
  H     -443.148     188.813     925.422
  H     -441.479     189.430     925.437
  H     -442.398     189.278     926.969
  P     -440.502     187.268     927.120
  C     -441.471     185.049     928.075
  O     -440.414     185.683     927.372
  C     -441.963     183.831     927.303
  O     -442.464     184.266     926.005
  C     -440.870     182.775     927.029
  O     -441.457     181.480     927.114
  C     -440.462     183.061     925.597
  O     -439.862     181.949     924.935
  C     -441.811     183.469     924.997
  N     -441.661     184.214     923.749
  C     -442.422     183.808     922.658
  O     -443.280     182.922     922.697
  N     -442.183     184.474     921.486
  C     -441.257     185.463     921.298
  O     -441.062     186.006     920.212
  C     -440.477     185.843     922.479
  C     -440.710     185.209     923.629
  O     -441.043     187.827     928.516
  O     -439.216     187.898     926.711
  H     -440.833     188.778     928.605
  H     -440.571     181.270     924.821
  H     -442.727     184.191     920.687
  H     -439.726     186.613     922.354
  H     -440.126     185.454     924.527
  H     -442.434     182.583     924.820
  H     -439.753     183.892     925.565
  H     -440.011     182.828     927.717
  H     -442.800     183.376     927.834
  H     -442.308     185.752     928.183
  H     -441.122     184.761     929.072
  P     -441.142     180.596     928.412
  C     -443.679     180.863     929.009
  O     -442.552     180.008     928.900
  O     -440.799     181.739     929.479
  O     -440.060     179.594     928.191
  H     -441.334     182.557     929.355
  H     -444.523     180.299     929.346
  H     -443.895     181.292     928.053
  H     -443.468     181.643     929.710

 6  7  8  9  10  11  12  13  14  15  16  27  31  32  33  34  35 0
 6-311+G(2d,p)
 ****
 36  37 0
 6-311+G(2d,p)
 ****
 1  2  3  4  5  17  18  19  20  21  22  23  24  25 0
 3-21G
 ****
 26  28  29  30  38  39  40  41  42  43  44  45 0
 3-21G
 ****


