%nproc=1
%NoSave
%Mem=1900MB
#P OB98/GEN NMR

erre ene a

0 1
  C      228.027     780.744     997.642
  O      227.766     781.709     996.638
  H      227.299     780.873     998.444
  H      229.035     780.885     998.050
  H      227.930     779.727     997.233
  P      228.724     781.666     995.346
  C      228.388     782.466     992.894
  O      227.778     781.964     994.067
  C      227.639     781.937     991.670
  O      227.784     780.505     991.585
  C      226.141     782.182     991.706
  O      225.804     783.529     991.347
  C      225.647     781.150     990.707
  O      225.741     781.639     989.366
  C      226.600     779.973     990.922
  N      225.781     774.947     991.242
  C      226.473     775.682     990.362
  N      226.658     777.037     990.348
  C      226.050     777.595     991.410
  C      225.315     776.962     992.394
  C      225.181     775.565     992.302
  N      224.458     774.812     993.182
  N      224.816     777.894     993.296
  C      225.266     779.053     992.875
  N      226.000     778.927     991.740
  O      229.079     780.118     995.199
  O      229.949     782.523     995.439
  H      226.652     781.970     989.252
  H      229.965     779.939     995.576
  H      226.935     775.143     989.545
  H      225.048     780.009     993.353
  H      226.929     779.522     989.991
  H      224.595     780.900     990.895
  H      225.729     781.938     992.707
  H      228.079     782.385     990.756
  H      229.428     782.135     992.847
  H      228.369     783.560     992.919
  H      224.362     773.828     993.010
  H      223.928     775.280     993.902
  P      224.330     784.031     991.705
  C      223.340     786.093     992.989
  O      224.482     785.450     992.437
  O      223.848     783.050     992.895
  O      223.364     784.039     990.573
  H      222.877     782.885     992.814
  H      223.633     787.021     993.433
  H      222.902     785.464     993.735
  H      222.625     786.278     992.214

 6  7  8  9  10  11  12  13  14  15  25  28  32  33  34  35 0
 6-311+G(2d,p)
 ****
 36  37  40 0
 6-311+G(2d,p)
 ****
 1  2  3  4  5  16  17  18  19  20  21  22  23  24 0
 3-21G
 ****
 26  27  29  30  31  38  39 41  42  43  44  45  46  47  48 0
 3-21G
 ****


