%nproc=1
%NoSave
%Mem=1900MB
#P OB98/GEN NMR

erre ene a

0 1
  C       78.278     -75.473    -248.712
  O       77.359     -74.633    -248.058
  P       77.551     -74.090    -246.571
  C       75.098     -74.697    -245.892
  O       76.112     -73.701    -245.981
  C       73.722     -74.061    -245.632
  O       73.754     -73.420    -244.329
  C       73.403     -72.956    -246.662
  O       72.059     -72.970    -247.120
  C       73.895     -71.695    -245.970
  O       73.329     -70.503    -246.498
  C       73.584     -72.002    -244.510
  N       74.830     -67.532    -242.418
  C       73.742     -67.848    -243.209
  N       72.997     -66.807    -243.642
  N       73.444     -69.073    -243.563
  C       74.344     -69.993    -243.156
  C       75.459     -69.799    -242.368
  C       75.757     -68.449    -241.951
  O       76.775     -68.109    -241.349
  N       76.177     -70.958    -242.202
  C       75.519     -71.846    -242.922
  N       74.416     -71.299    -243.542
  O       78.689     -73.146    -246.340
  O       77.887     -75.454    -245.767
  H       73.840     -69.751    -246.134
  H       78.515     -75.222    -245.056
  H       75.057     -66.560    -242.245
  H       75.807     -72.881    -243.052
  H       72.555     -71.744    -244.259
  H       74.982     -71.631    -246.137
  H       73.289     -65.847    -243.504
  H       73.985     -73.114    -247.577
  H       72.352     -66.985    -244.409
  H       72.961     -74.846    -245.599
  H       75.377     -75.349    -245.059
  H       75.075     -75.308    -246.803
  P       71.510     -73.130    -248.613
  C       70.721     -70.779    -249.274
  O       70.333     -72.067    -248.841
  O       70.732     -74.532    -248.614
  O       72.565     -73.125    -249.666
  H       70.900     -74.995    -249.458
  H       69.882     -70.090    -249.127
  H       70.967     -70.810    -250.340
  H       71.586     -70.419    -248.705
  H       77.921     -75.695    -249.696
  H       78.386     -76.382    -248.159
  H       79.226     -74.981    -248.779

 3  4  5  6  7  8  9  10  11  12  23  26  30  31 0
 6-311+G(2d,p)
 ****
 33  35  36  37  38 0
 6-311+G(2d,p)
 ****
 1  2  13  14  15  16  17  18  19  20  21  22  24  25 0
 3-21G
 ****
 27  28  29  32  34  39  40  41  42  43  44  45  46  47  48  49 0
 3-21G
 ****


