%nproc=1
%NoSave
%Mem=1900MB
#P OB98/GEN NMR

erre ene a

0 1
  C      110.435     -54.680     -47.959
  O      110.519     -55.992     -48.490
  P      109.651     -57.184     -47.867
  C      107.715     -56.318     -49.314
  O      108.096     -56.787     -48.024
  C      107.137     -57.446     -50.167
  O      106.233     -58.249     -49.353
  C      106.344     -56.977     -51.400
  O      106.560     -57.952     -52.428
  C      104.899     -57.059     -50.922
  O      103.963     -57.131     -51.987
  C      104.975     -58.314     -50.051
  N      100.246     -60.102     -49.201
  C      101.043     -60.148     -50.296
  N      102.283     -59.626     -50.448
  C      102.682     -59.006     -49.325
  C      101.967     -58.850     -48.144
  C      100.692     -59.451     -48.099
  N       99.883     -59.445     -46.982
  N      102.693     -58.095     -47.235
  C      103.819     -57.808     -47.859
  N      103.884     -58.387     -49.094
  O      110.049     -57.607     -46.488
  O      109.830     -58.382     -48.916
  H      104.193     -57.894     -52.550
  H      110.428     -59.062     -48.547
  H      100.642     -60.683     -51.154
  H      104.616     -57.183     -47.465
  H      104.962     -59.231     -50.651
  H      104.664     -56.172     -50.320
  H      106.616     -55.978     -51.750
  H      107.964     -58.100     -50.472
  H      108.609     -55.915     -49.802
  H       99.051     -60.020     -47.015
  H      100.287     -59.202     -46.078
  H      106.981     -55.509     -49.210
  P      106.514     -57.508     -53.974
  C      109.036     -57.110     -53.749
  O      107.799     -56.592     -54.222
  O      105.211     -56.934     -54.432
  O      106.875     -58.867     -54.758
  H      106.597     -58.782     -55.694
  H      109.120     -56.918     -52.671
  H      109.858     -56.606     -54.266
  H      109.107     -58.186     -53.933
  H      111.086     -54.031     -48.507
  H      110.727     -54.692     -46.930
  H      109.428     -54.326     -48.040

 3  4  5  6  7  8  9  10  11  12  22  25  29  30  31  32 0
 6-311+G(2d,p)
 ****
 33  36  37 0
 6-311+G(2d,p)
 ****
 1  2  13  14  15  16  17  18  19  20  21  23  24  26 0
 3-21G
 ****
 27  28  34  35  38  39  40  41  42  43  44  45  46  47  48 0
 3-21G
 ****


