%nproc=1
%NoSave
%Mem=1900MB
#P OB98/GEN NMR

erre ene a

0 1
  C     -786.977     268.595    -572.213
  O     -787.589     267.634    -573.049
  H     -787.715     269.355    -571.942
  H     -786.148     269.092    -572.731
  H     -786.609     268.119    -571.300
  P     -786.672     266.501    -573.706
  C     -785.544     268.353    -575.119
  O     -786.204     267.094    -575.119
  C     -785.262     268.796    -576.552
  O     -784.383     267.854    -577.203
  C     -786.510     268.859    -577.420
  O     -787.275     270.005    -577.118
  C     -785.905     268.819    -578.811
  O     -785.408     270.106    -579.200
  C     -784.741     267.817    -578.608
  N     -785.081     266.465    -579.029
  C     -785.099     266.241    -580.413
  O     -784.840     267.154    -581.193
  N     -785.443     264.987    -580.860
  C     -785.724     264.041    -580.017
  N     -786.055     262.830    -580.531
  C     -785.692     264.236    -578.553
  C     -785.369     265.461    -578.134
  O     -787.244     265.116    -573.773
  O     -785.329     266.554    -572.835
  H     -784.992     269.982    -580.078
  H     -785.396     265.946    -572.068
  H     -785.923     263.419    -577.890
  H     -785.329     265.688    -577.072
  H     -783.851     268.146    -579.167
  H     -786.629     268.503    -579.554
  H     -787.107     267.949    -577.285
  H     -784.751     269.765    -576.522
  H     -786.069     262.745    -581.541
  H     -784.602     268.224    -574.576
  H     -786.201     262.002    -579.974
  H     -786.145     269.106    -574.606
  P     -788.636     269.882    -576.283
  C     -789.790     268.816    -578.326
  O     -789.813     269.873    -577.376
  O     -788.800     270.871    -575.179
  O     -788.615     268.362    -575.769
  H     -787.966     268.240    -575.039
  H     -790.619     268.919    -578.995
  H     -789.858     267.877    -577.817
  H     -788.876     268.856    -578.882

 6  7  8  9  10  11  12  13  14  15  16  26  30  31  32  33  35 0
 6-311+G(2d,p)
 ****
 37  38 0
 6-311+G(2d,p)
 ****
 1  2  3  4  5  17  18  19  20  21  22  23  24  25 0
 3-21G
 ****
 27  28  29  34  36  39  40  41  42  43  44  45  46 0
 3-21G
 ****


