%nproc=1
%NoSave
%Mem=1900MB
#P OB98/GEN NMR

erre ene a

0 1
  C        1.039     318.203     138.236
  O        2.050     318.547     137.317
  H        0.675     317.200     137.993
  H        0.201     318.900     138.171
  H        1.438     318.189     139.255
  P        2.632     320.044     137.324
  C        1.718     320.516     134.974
  O        1.650     320.874     136.350
  C        2.035     321.727     134.095
  O        1.914     321.360     132.694
  C        1.118     322.932     134.340
  O        1.906     324.119     134.445
  C        0.251     322.983     133.087
  O       -0.271     324.286     132.846
  C        1.225     322.438     132.036
  N        0.553     321.987     130.820
  C        0.221     322.974     129.887
  O        0.463     324.161     130.129
  N       -0.407     322.605     128.727
  C       -0.726     321.363     128.534
  N       -1.357     321.061     127.372
  C       -0.437     320.296     129.512
  C        0.204     320.671     130.617
  O        4.085     320.151     136.991
  O        2.264     320.613     138.772
  H        0.419     324.818     132.393
  H        2.844     321.387     138.979
  H       -0.731     319.274     129.310
  H        0.467     319.951     131.387
  H        1.964     323.200     131.757
  H       -0.597     322.291     133.198
  H        0.511     322.835     135.236
  H        3.092     321.994     134.247
  H       -1.540     321.823     126.723
  H        0.760     320.074     134.678
  H       -1.660     320.132     127.117
  H        2.513     319.769     134.851
  P        1.721     324.971     135.795
  C       -0.098     326.593     134.926
  O        0.218     325.537     135.819
  O        2.621     326.266     135.535
  O        2.146     324.237     137.030
  H        3.480     326.181     135.993
  H       -1.125     326.869     135.049
  H        0.067     326.270     133.919
  H        0.525     327.437     135.136

 6  7  8  9  10  11  12  13  14  15  16  26  30  31  32  33  35 0
 6-311+G(2d,p)
 ****
 37  38 0
 6-311+G(2d,p)
 ****
 1  2  3  4  5  17  18  19  20  21  22  23  24  25 0
 3-21G
 ****
 27  28  29  34  36  39  40  41  42  43  44  45  46 0
 3-21G
 ****


