%nproc=1
%NoSave
%Mem=1900MB
#P OB98/GEN NMR

erre ene a

0 1
  C      121.504      44.208      53.633
  O      120.594      43.180      53.982
  P      119.177      43.055      53.254
  C      117.358      44.853      52.660
  O      118.336      44.375      53.558
  C      116.279      45.601      53.453
  O      116.797      46.858      53.935
  C      115.053      45.895      52.592
  O      114.070      44.887      52.759
  C      114.614      47.257      53.094
  O      113.841      47.122      54.301
  C      115.974      47.929      53.400
  N      116.707      48.554      52.284
  C      117.176      49.858      52.412
  O      117.044      50.533      53.427
  N      117.793      50.380      51.302
  C      118.017      49.719      50.129
  O      118.343      50.260      49.080
  C      117.747      48.278      50.154
  C      117.096      47.775      51.202
  O      118.428      41.932      54.111
  O      119.230      42.709      51.802
  H      114.375      46.600      54.926
  H      118.488      41.065      53.670
  H      118.010      51.371      51.340
  H      118.040      47.686      49.298
  H      116.850      46.716      51.225
  H      115.868      48.689      54.182
  H      113.968      47.754      52.373
  H      115.344      45.987      51.537
  H      115.996      44.997      54.324
  H      116.916      44.017      52.108
  H      117.818      45.520      51.924
  P      112.773      44.883      51.822
  C      110.572      46.195      51.777
  O      111.785      45.970      52.466
  O      112.170      43.543      51.560
  O      113.293      45.575      50.473
  H      113.522      44.887      49.815
  H      109.921      46.809      52.402
  H      110.069      45.245      51.563
  H      110.771      46.728      50.844
  H      122.388      44.120      54.230
  H      121.049      45.161      53.807
  H      121.762      44.120      52.598

 3  4  5  6  7  8  9  10  11  12  13  23  28  29  30  31  32 0
 6-311+G(2d,p)
 ****
 33  34 0
 6-311+G(2d,p)
 ****
 1  2  14  15  16  17  18  19  20  21  22  24  25  26  27 0
 3-21G
 ****
 35  36  37  38  39  40  41  42  43  44  45 0
 3-21G
 ****


