%nproc=1
%NoSave
%Mem=1900MB
#P OB98/GEN NMR

erre ene a

0 1
  C      235.104    -274.786     344.432
  O      234.165    -274.810     345.489
  P      234.735    -275.012     346.983
  C      233.883    -277.471     347.011
  O      234.993    -276.588     347.178
  C      234.055    -278.725     347.865
  O      232.816    -279.486     347.830
  C      235.186    -279.671     347.411
  O      235.742    -280.250     348.594
  C      234.428    -280.700     346.595
  O      235.142    -281.906     346.365
  C      233.161    -280.833     347.439
  N      231.518    -285.127     345.176
  C      232.646    -284.848     345.879
  N      233.006    -283.684     346.457
  C      232.063    -282.747     346.267
  C      230.883    -282.876     345.567
  C      230.619    -284.138     345.002
  N      229.469    -284.412     344.275
  N      230.171    -281.688     345.560
  C      230.925    -280.855     346.252
  N      232.066    -281.457     346.715
  O      233.452    -274.729     347.896
  O      235.890    -274.128     347.343
  H      235.280    -282.378     347.212
  H      233.704    -274.242     348.711
  H      233.350    -285.667     345.992
  H      230.692    -279.811     346.424
  H      233.328    -281.416     348.345
  H      234.190    -280.277     345.615
  H      235.979    -279.160     346.857
  H      234.222    -278.417     348.907
  H      233.838    -277.776     345.959
  H      229.476    -285.273     343.749
  H      228.916    -283.624     343.982
  H      232.962    -276.943     347.258
  P      237.335    -280.244     348.790
  C      237.363    -282.820     348.678
  O      237.806    -281.622     348.096
  O      237.459    -280.622     350.342
  O      238.043    -279.001     348.392
  H      236.928    -281.412     350.565
  H      237.665    -283.662     348.061
  H      236.264    -282.821     348.766
  H      237.805    -282.935     349.682
  H      234.592    -274.646     343.503
  H      235.639    -275.713     344.409
  H      235.792    -273.981     344.584

 3  4  5  6  7  8  9  10  11  12  22  25  29  30  31  32 0
 6-311+G(2d,p)
 ****
 33  36  37 0
 6-311+G(2d,p)
 ****
 1  2  13  14  15  16  17  18  19  20  21  23  24  26 0
 3-21G
 ****
 27  28  34  35  38  39  40  41  42  43  44  45  46  47  48 0
 3-21G
 ****


