%nproc=1
%NoSave
%Mem=1900MB
#P OB98/GEN NMR

erre ene a

0 1
  C       60.918      87.429    -246.464
  O       60.225      88.102    -247.500
  P       59.163      87.326    -248.407
  C       60.773      87.606    -250.381
  O       59.430      87.749    -249.936
  C       61.254      88.861    -251.111
  O       60.454      89.044    -252.313
  C       61.152      90.158    -250.293
  O       62.255      90.980    -250.690
  C       59.854      90.770    -250.797
  O       59.769      92.168    -250.552
  C       59.926      90.384    -252.271
  N       56.051      93.392    -253.723
  C       57.187      93.654    -253.042
  N       58.160      92.794    -252.669
  C       57.869      91.549    -253.079
  C       56.739      91.120    -253.757
  C       55.804      92.114    -254.101
  N       54.658      91.870    -254.826
  N       56.777      89.752    -253.948
  C       57.911      89.364    -253.401
  N       58.633      90.425    -252.916
  O       57.741      87.449    -247.969
  O       59.650      85.803    -248.365
  H       60.501      92.611    -251.022
  H       59.054      85.281    -247.795
  H       57.340      94.691    -252.758
  H       58.250      88.340    -253.317
  H       60.605      91.035    -252.835
  H       59.005      90.286    -250.301
  H       61.153      90.002    -249.212
  H       62.285      88.690    -251.436
  H       60.811      86.753    -251.064
  H       54.127      92.669    -255.130
  H       54.584      90.994    -255.345
  H       61.427      87.390    -249.528
  P       63.623      90.936    -249.856
  C       63.578      93.438    -249.296
  O       64.269      92.397    -249.967
  O       64.535      89.803    -250.183
  O       63.127      90.875    -248.327
  H       63.858      90.574    -247.761
  H       62.735      93.770    -249.919
  H       64.261      94.278    -249.141
  H       63.199      93.101    -248.329
  H       61.580      88.113    -245.975
  H       61.484      86.621    -246.879
  H       60.214      87.044    -245.755

 3  4  5  6  7  8  9  10  11  12  22  25  29  30  31  32 0
 6-311+G(2d,p)
 ****
 33  36  37 0
 6-311+G(2d,p)
 ****
 1  2  13  14  15  16  17  18  19  20  21  23  24  26 0
 3-21G
 ****
 27  28  34  35  38  39  40  41  42  43  44  45  46  47  48 0
 3-21G
 ****


