%nproc=1
%NoSave
%Mem=1900MB
#P OB98/GEN NMR

erre ene a

0 1
  C       28.535     203.548    -771.079
  O       27.565     203.304    -772.082
  P       28.075     203.256    -773.607
  C       29.128     200.872    -773.474
  O       29.343     202.267    -773.635
  C       29.552     200.123    -774.746
  O       28.679     200.463    -775.839
  C       30.958     200.452    -775.223
  O       31.940     199.808    -774.421
  C       30.883     199.949    -776.658
  O       31.026     198.522    -776.694
  C       29.444     200.338    -777.063
  N       30.683     202.722    -781.430
  C       30.904     201.462    -780.992
  N       30.561     200.910    -779.810
  C       29.918     201.801    -779.035
  C       29.643     203.120    -779.342
  C       30.045     203.585    -780.599
  N       29.821     204.872    -781.039
  N       28.986     203.732    -778.288
  C       28.866     202.794    -777.374
  N       29.395     201.603    -777.789
  O       28.729     204.696    -773.815
  O       27.009     202.961    -774.615
  H       30.326     198.143    -776.128
  H       28.600     205.009    -774.733
  H       31.437     200.813    -781.683
  H       28.391     202.920    -776.410
  H       28.959     199.578    -777.685
  H       31.658     200.374    -777.310
  H       31.125     201.539    -775.209
  H       29.455     199.048    -774.546
  H       28.060     200.684    -773.301
  H       30.274     205.161    -781.888
  H       29.476     205.549    -780.370
  H       29.683     200.519    -772.606
  P       33.384     200.503    -774.329
  C       32.444     201.976    -772.442
  O       33.072     201.954    -773.721
  O       33.681     200.838    -775.866
  O       34.419     199.702    -773.612
  H       32.931     201.269    -776.301
  H       32.335     203.015    -772.117
  H       33.049     201.436    -771.712
  H       31.448     201.522    -772.507
  H       28.062     203.553    -770.119
  H       28.998     204.497    -771.254
  H       29.278     202.778    -771.106

 3  4  5  6  7  8  9  10  11  12  22  25  29  30  31  32 0
 6-311+G(2d,p)
 ****
 33  36  37 0
 6-311+G(2d,p)
 ****
 1  2  13  14  15  16  17  18  19  20  21  23  24  26 0
 3-21G
 ****
 27  28  34  35  38  39  40  41  42  43  44  45  46  47  48 0
 3-21G
 ****


