%nproc=1
%NoSave
%Mem=1900MB
#P OB98/GEN NMR

erre ene a

0 1
  C     -286.448     339.813    -146.778
  O     -285.569     340.254    -145.762
  H     -286.966     338.904    -146.462
  H     -287.191     340.594    -146.963
  H     -285.896     339.627    -147.702
  P     -284.389     339.252    -145.342
  C     -282.630     340.987    -146.150
  O     -283.128     339.659    -146.250
  C     -281.110     340.961    -146.047
  O     -280.704     340.267    -144.847
  C     -280.417     340.238    -147.197
  O     -280.289     341.057    -148.346
  C     -279.064     339.953    -146.571
  O     -278.267     341.151    -146.570
  C     -279.458     339.574    -145.135
  N     -277.144     335.153    -144.000
  C     -276.672     336.411    -144.134
  N     -277.352     337.534    -144.447
  C     -278.655     337.266    -144.619
  C     -279.281     336.036    -144.522
  C     -278.468     334.941    -144.189
  N     -278.945     333.653    -144.063
  N     -280.629     336.149    -144.805
  C     -280.816     337.432    -145.037
  N     -279.650     338.147    -144.947
  O     -284.845     337.850    -145.965
  O     -284.104     339.163    -143.881
  H     -278.849     341.874    -146.262
  H     -284.388     337.118    -145.511
  H     -275.601     336.531    -143.976
  H     -281.768     337.890    -145.272
  H     -278.719     339.905    -144.395
  H     -278.497     339.189    -147.106
  H     -280.911     339.291    -147.433
  H     -280.757     341.998    -145.969
  H     -283.046     341.463    -145.253
  H     -278.254     332.920    -144.005
  H     -279.894     333.463    -144.349
  H     -282.944     341.555    -147.033
  P     -279.902     340.338    -149.729
  C     -282.424     339.714    -149.861
  O     -281.075     339.281    -150.013
  O     -278.660     339.419    -149.323
  O     -279.580     341.271    -150.849
  H     -278.083     339.253    -150.091
  H     -283.086     338.903    -150.083
  H     -282.616     340.525    -150.532
  H     -282.583     340.038    -148.854

 6  7  8  9  10  11  12  13  14  15  25  28  32  33  34  35 0
 6-311+G(2d,p)
 ****
 36  39  40 0
 6-311+G(2d,p)
 ****
 1  2  3  4  5  16  17  18  19  20  21  22  23  24 0
 3-21G
 ****
 26  27  29  30  31  37  38  41  42  43  44  45  46  47 0
 3-21G
 ****
 48 0
 3-21G
 ****


