%nproc=1
%NoSave
%Mem=1900MB
#P OB98/GEN NMR

erre ene a

0 1
  C      -53.025      -8.845     -22.033
  O      -52.312      -7.604     -21.956
  P      -52.673      -6.656     -20.707
  C      -51.767      -7.952     -18.646
  O      -51.562      -6.889     -19.568
  C      -50.446      -8.473     -18.073
  O      -49.557      -8.820     -19.164
  C      -49.694      -7.475     -17.183
  O      -49.069      -8.198     -16.112
  C      -48.590      -6.960     -18.088
  O      -47.487      -6.438     -17.350
  C      -48.280      -8.222     -18.890
  N      -43.810      -7.053     -20.947
  C      -44.122      -7.375     -19.641
  N      -43.103      -7.361     -18.755
  N      -45.328      -7.685     -19.239
  C      -46.242      -7.689     -20.240
  C      -46.054      -7.398     -21.573
  C      -44.722      -7.017     -21.993
  O      -44.392      -6.669     -23.125
  N      -47.225      -7.510     -22.281
  C      -48.119      -7.859     -21.379
  N      -47.573      -7.973     -20.125
  O      -53.994      -7.331     -20.106
  O      -52.912      -5.231     -21.082
  H      -46.699      -6.516     -17.921
  H      -54.718      -6.676     -20.076
  H      -42.869      -6.802     -21.197
  H      -49.171      -8.017     -21.569
  H      -47.692      -8.936     -18.299
  H      -48.985      -6.161     -18.726
  H      -42.141      -7.196     -19.009
  H      -50.316      -6.671     -16.777
  H      -43.304      -7.640     -17.803
  H      -50.654      -9.395     -17.518
  H      -52.287      -8.772     -19.149
  H      -52.413      -7.593     -17.837
  P      -49.491      -7.774     -14.623
  C      -51.486      -9.444     -14.638
  O      -50.285      -9.027     -14.019
  O      -50.637      -6.680     -14.861
  O      -48.367      -7.248     -13.794
  H      -50.674      -6.060     -14.108
  H      -51.642      -8.960     -15.606
  H      -52.327      -9.199     -13.983
  H      -51.454     -10.526     -14.785
  H      -52.704      -9.388     -22.898
  H      -54.075      -8.650     -22.104
  H      -52.828      -9.424     -21.155

 3  4  5  6  7  8  9  10  11  12  23  26  30  31  33  0
 6-311+G(2d,p)
 ****
 35  36  37  38 0
 6-311+G(2d,p)
 ****
 1  2  13  14  15  16  17  18  19  20  21  22  24  25  27  28  29 0
 3-21G
 ****
 32  34  39  40  41  42  43  44  45  46  47  48  49 0
 3-21G
 ****


