%nproc=1
%NoSave
%Mem=1900MB
#P OB98/GEN NMR

erre ene a

0 1
  C       19.640      79.301     595.176
  O       20.493      80.349     594.694
  P       21.652      79.954     593.654
  C       23.714      81.383     594.384
  O       22.620      81.232     593.483
  C       24.734      82.358     593.804
  O       25.405      81.817     592.643
  C       24.137      83.688     593.356
  O       23.975      84.589     594.442
  C       25.224      84.201     592.417
  O       26.285      84.788     593.183
  C       25.700      82.914     591.738
  N       26.194      83.286     586.715
  C       27.084      83.612     587.725
  N       28.277      84.111     587.346
  N       26.816      83.480     588.991
  C       25.587      82.946     589.232
  C       24.627      82.578     588.315
  C       24.933      82.760     586.908
  O       24.184      82.493     585.973
  N       23.503      82.093     588.935
  C       23.792      82.145     590.221
  N       25.046      82.670     590.461
  O       20.876      79.914     592.251
  O       22.333      78.662     593.951
  H       25.869      85.355     593.861
  H       21.319      79.292     591.647
  H       26.455      83.416     585.753
  H       23.138      81.813     591.023
  H       26.775      82.907     591.547
  H       24.851      84.977     591.740
  H       28.576      84.200     586.379
  H       23.203      83.531     592.798
  H       28.949      84.332     588.072
  H       25.498      82.562     594.586
  H       24.191      80.410     594.574
  H       23.334      81.721     595.359
  P       22.482      84.996     594.867
  C       23.479      87.227     595.752
  O       22.633      86.131     595.995
  O       21.976      83.706     595.669
  O       21.573      85.333     593.723
  H       21.008      83.600     595.557
  H       23.336      87.963     596.542
  H       23.244      87.692     594.792
  H       24.533      86.907     595.760
  H       18.922      79.710     595.855
  H       20.230      78.565     595.681
  H       19.132      78.847     594.351

 3  4  5  6  7  8  9  10  11  12  23  26  30  31 0
 6-311+G(2d,p)
 ****
 33  35  36  37  38 0
 6-311+G(2d,p)
 ****
 1  2  13  14  15  16  17  18  19  20  21  22  24  25 0
 3-21G
 ****
 27  28  29  32  34  39  40  41  42  43  44  45  46  47  48  49 0
 3-21G
 ****


