%nproc=1
%NoSave
%Mem=1900MB
#P OB98/GEN NMR

erre ene a

0 1
  C     -170.372     222.792    -502.218
  O     -170.670     222.872    -500.838
  H     -170.994     222.013    -502.669
  H     -169.323     222.524    -502.356
  H     -170.584     223.743    -502.716
  P     -170.015     224.094    -500.030
  C     -167.908     222.939    -499.044
  O     -168.430     223.831    -500.016
  C     -166.399     223.122    -498.911
  O     -165.752     222.936    -500.193
  C     -165.976     224.508    -498.424
  O     -166.053     224.615    -497.005
  C     -164.533     224.542    -498.898
  O     -163.708     223.756    -498.013
  C     -164.637     223.867    -500.271
  N     -162.480     226.338    -504.140
  C     -161.919     225.481    -503.205
  N     -160.594     225.257    -503.320
  N     -162.594     224.896    -502.255
  C     -163.912     225.222    -502.255
  C     -164.582     226.055    -503.124
  C     -163.826     226.685    -504.182
  O     -164.277     227.437    -505.043
  N     -165.918     226.129    -502.820
  C     -166.052     225.360    -501.757
  N     -164.862     224.789    -501.370
  O     -170.446     223.808    -498.511
  O     -170.440     225.454    -500.469
  H     -164.021     222.836    -498.078
  H     -170.613     224.661    -498.067
  H     -161.911     226.768    -504.846
  H     -166.980     225.180    -501.233
  H     -163.741     223.282    -500.517
  H     -164.118     225.551    -498.906
  H     -160.004     225.715    -503.998
  H     -166.545     225.299    -498.920
  H     -160.164     224.609    -502.668
  H     -166.018     222.343    -498.234
  H     -168.120     221.909    -499.348
  H     -168.396     223.133    -498.081
  P     -166.056     226.091    -496.372
  C     -163.481     226.012    -496.706
  O     -164.679     226.767    -496.849
  O     -165.812     225.815    -494.810
  O     -167.297     226.880    -496.616
  H     -166.151     226.563    -494.285
  H     -162.652     226.587    -497.063
  H     -163.559     225.108    -497.274
  H     -163.331     225.773    -495.674

 6  7  8  9  10  11  12  13  14  15  26  29  33  34 0
 6-311+G(2d,p)
 ****
 36  38  39  40  41 0
 6-311+G(2d,p)
 ****
 1  2  3  4  5  16  17  18  19  20  21  22  23  24  25 0
 3-21G
 ****
 27  28  30  31  32  35  37  42  43  44  45  46  47 0
 3-21G
 ****
 48  49 0
 3-21G
 ****


