%nproc=1
%NoSave
%Mem=1900MB
#P OB98/GEN NMR

erre ene a

0 1
  C     -146.528     192.207    -239.827
  O     -147.553     191.323    -240.241
  H     -146.439     193.010    -240.563
  H     -145.574     191.674    -239.766
  H     -146.774     192.643    -238.854
  P     -147.851     190.076    -239.277
  C     -147.250     188.448    -241.223
  O     -148.198     188.844    -240.243
  C     -147.822     187.323    -242.093
  O     -147.992     186.132    -241.265
  C     -149.196     187.642    -242.702
  O     -149.312     186.918    -243.938
  C     -150.137     187.040    -241.669
  O     -151.445     186.933    -242.180
  C     -149.381     185.751    -241.363
  N     -149.477     181.317    -238.813
  C     -148.902     181.668    -239.987
  N     -148.911     182.871    -240.594
  C     -149.578     183.775    -239.856
  C     -150.209     183.566    -238.642
  C     -150.142     182.264    -238.114
  N     -150.733     181.902    -236.925
  N     -150.797     184.736    -238.191
  C     -150.525     185.629    -239.120
  N     -149.799     185.095    -240.148
  O     -149.257     190.449    -238.614
  O     -146.804     189.793    -238.251
  H     -151.718     187.773    -242.611
  H     -149.112     190.875    -237.748
  H     -148.369     180.875    -240.504
  H     -150.836     186.670    -239.103
  H     -149.470     185.023    -242.179
  H     -150.197     187.679    -240.779
  H     -149.354     188.710    -242.886
  H     -147.089     187.064    -242.870
  H     -146.345     188.098    -240.711
  H     -146.996     189.305    -241.853
  H     -150.655     180.944    -236.626
  H     -151.249     182.593    -236.402
  P     -148.688     187.553    -245.277
  C     -151.102     187.943    -246.207
  O     -149.786     187.466    -246.444
  O     -147.642     186.419    -245.724
  O     -148.005     188.869    -245.113
  H     -146.914     186.832    -246.227
  H     -151.695     187.807    -247.087
  H     -151.065     188.983    -245.959
  H     -151.538     187.398    -245.396

 6  7  8  9  10  11  12  13  14  15  25  28  32  33  34  35 0
 6-311+G(2d,p)
 ****
 36  37  40 0
 6-311+G(2d,p)
 ****
 1  2  3  4  5  16  17  18  19  20  21  22  23  24 0
 3-21G
 ****
 26  27  29  30  31  38  39 41  42  43  44  45  46  47  48 0
 3-21G
 ****


