%nproc=1
%NoSave
%Mem=1900MB
#P OB98/GEN NMR

erre ene a

0 1
  C      -62.501     289.720     191.604
  O      -63.750     290.305     191.958
  P      -64.405     291.361     190.941
  C      -64.287     293.322     192.645
  O      -63.878     292.817     191.375
  C      -64.445     294.838     192.608
  O      -65.221     295.264     193.771
  C      -63.131     295.616     192.636
  O      -63.323     296.814     191.865
  C      -62.981     295.996     194.097
  O      -62.100     297.101     194.283
  C      -64.442     296.267     194.463
  N      -66.553     298.553     198.521
  C      -66.515     298.896     197.221
  N      -65.942     298.228     196.196
  C      -65.336     297.112     196.633
  C      -65.256     296.650     197.940
  C      -65.906     297.421     198.924
  N      -65.946     297.080     200.247
  N      -64.532     295.483     198.003
  C      -64.180     295.230     196.750
  N      -64.663     296.177     195.891
  O      -65.944     291.370     191.391
  O      -64.264     291.036     189.495
  H      -61.208     296.836     193.997
  H      -66.500     290.967     190.690
  H      -67.039     299.812     196.953
  H      -63.586     294.382     196.434
  H      -64.777     297.246     194.125
  H      -62.581     295.137     194.656
  H      -62.274     295.065     192.251
  H      -65.031     295.105     191.724
  H      -63.520     293.062     193.386
  H      -66.547     297.610     200.866
  H      -65.637     296.155     200.522
  H      -65.235     292.845     192.941
  P      -62.118     297.275     190.918
  C      -60.803     298.480     192.797
  O      -60.829     297.431     191.848
  O      -62.502     298.788     190.539
  O      -61.946     296.437     189.689
  H      -62.116     299.020     189.675
  H      -60.242     298.150     193.675
  H      -61.811     298.782     193.104
  H      -60.294     299.346     192.361
  H      -62.194     289.043     192.373
  H      -61.766     290.489     191.492
  H      -62.605     289.188     190.681

 3  4  5  6  7  8  9  10  11  12  22  25  29  30  31  32 0
 6-311+G(2d,p)
 ****
 33  36  37 0
 6-311+G(2d,p)
 ****
 1  2  13  14  15  16  17  18  19  20  21  23  24  26 0
 3-21G
 ****
 27  28  34  35  38  39  40  41  42  43  44  45  46  47  48 0
 3-21G
 ****


