%nproc=1
%NoSave
%Mem=1900MB
#P OB98/GEN NMR

erre ene a

0 1
  C      -88.039     468.816    -124.809
  O      -88.595     467.892    -123.893
  H      -87.148     468.393    -125.279
  H      -88.781     469.033    -125.586
  H      -87.785     469.749    -124.297
  P      -87.672     467.447    -122.660
  C      -89.382     468.562    -121.050
  O      -88.022     468.458    -121.465
  C      -89.578     469.853    -120.263
  O      -89.452     470.994    -121.147
  C      -90.946     469.987    -119.610
  O      -91.032     469.275    -118.387
  C      -91.004     471.491    -119.380
  O      -90.197     471.836    -118.237
  C      -90.361     472.026    -120.668
  N      -93.924     475.351    -122.243
  C      -93.146     475.317    -121.138
  N      -92.227     474.393    -120.793
  C      -92.142     473.429    -121.717
  C      -92.879     473.324    -122.890
  C      -93.805     474.352    -123.149
  N      -94.614     474.381    -124.270
  N      -92.542     472.172    -123.579
  C      -91.603     471.612    -122.850
  N      -91.335     472.327    -121.717
  O      -86.202     467.909    -123.107
  O      -87.727     466.002    -122.296
  H      -90.499     471.263    -117.503
  H      -85.529     467.413    -122.601
  H      -93.285     476.141    -120.441
  H      -91.083     470.696    -123.102
  H      -89.772     472.935    -120.497
  H      -92.013     471.858    -119.186
  H      -91.758     469.701    -120.298
  H      -88.779     469.926    -119.512
  H      -89.627     467.706    -120.412
  H      -95.361     475.054    -124.261
  H      -94.635     473.569    -124.863
  H      -90.026     468.545    -121.934
  P      -91.441     467.727    -118.459
  C      -89.590     467.115    -116.729
  O      -90.128     466.904    -118.034
  O      -91.559     467.454    -120.027
  O      -92.693     467.375    -117.721
  H      -92.172     466.714    -120.207
  H      -88.724     466.501    -116.597
  H      -90.325     466.859    -115.995
  H      -89.318     468.144    -116.617

 6  7  8  9  10  11  12  13  14  15  25  28  32  33  34  35 0
 6-311+G(2d,p)
 ****
 36  39  40 0
 6-311+G(2d,p)
 ****
 1  2  3  4  5  16  17  18  19  20  21  22  23  24 0
 3-21G
 ****
 26  27  29  30  31  37  38  41  42  43  44  45  46  47 0
 3-21G
 ****
 48 0
 3-21G
 ****


