%nproc=1
%NoSave
%Mem=1900MB
#P OB98/GEN NMR

erre ene a

0 1
  C     -898.986    -164.686     427.870
  O     -898.166    -163.944     428.793
  P     -898.026    -162.342     428.708
  C     -898.306    -162.221     431.266
  O     -897.556    -161.788     430.142
  C     -897.496    -162.078     432.573
  O     -896.556    -163.149     432.714
  C     -896.696    -160.784     432.666
  O     -897.536    -159.706     433.029
  C     -895.636    -161.181     433.724
  O     -896.196    -161.058     435.045
  C     -895.376    -162.648     433.381
  N     -890.356    -163.584     433.421
  C     -891.246    -163.484     434.410
  N     -892.576    -163.226     434.336
  C     -892.936    -163.088     433.031
  C     -892.126    -163.142     431.897
  C     -890.776    -163.405     432.139
  N     -889.836    -163.490     431.123
  N     -892.856    -162.916     430.778
  C     -894.096    -162.743     431.190
  N     -894.196    -162.846     432.551
  O     -899.246    -161.652     428.154
  O     -896.766    -162.086     427.761
  H     -895.976    -160.163     435.367
  H     -896.856    -161.225     427.310
  H     -890.856    -163.634     435.415
  H     -894.956    -162.551     430.552
  H     -895.236    -163.253     434.291
  H     -894.756    -160.535     433.693
  H     -896.186    -160.591     431.711
  H     -898.206    -162.158     433.418
  H     -898.566    -163.281     431.129
  H     -888.876    -163.645     431.362
  H     -890.126    -163.330     430.170
  H     -899.226    -161.644     431.338
  P     -897.036    -158.191     432.758
  C     -897.786    -158.366     430.318
  O     -897.896    -157.640     431.523
  O     -895.566    -157.995     432.651
  O     -897.636    -157.370     434.001
  H     -897.066    -156.609     434.195
  H     -896.846    -158.117     429.805
  H     -898.646    -158.116     429.681
  H     -897.806    -159.444     430.518
  H     -898.935    -165.728     428.106
  H     -898.632    -164.529     426.873
  H     -900.000    -164.352     427.946

 3  4  5  6  7  8  9  10  11  12  22  25  29  30  31  32 0
 6-311+G(2d,p)
 ****
 33  36  37 0
 6-311+G(2d,p)
 ****
 1  2  13  14  15  16  17  18  19  20  21  23  24  26 0
 3-21G
 ****
 27  28  34  35  38  39  40  41  42  43  44  45  46  47  48 0
 3-21G
 ****


