%nproc=1
%NoSave
%Mem=1900MB
#P OB98/GEN NMR

erre ene a

0 1
  C      291.213     120.943    -124.818
  O      292.038     119.991    -125.458
  H      291.314     121.898    -125.340
  H      291.520     121.077    -123.776
  H      290.167     120.622    -124.860
  P      292.122     118.538    -124.770
  C      292.618     117.071    -126.869
  O      293.136     117.731    -125.723
  C      293.763     116.503    -127.705
  O      294.509     117.571    -128.338
  C      294.794     115.709    -126.905
  O      294.363     114.398    -126.580
  C      295.938     115.691    -127.908
  O      295.645     114.755    -128.960
  C      295.900     117.145    -128.424
  N      296.764     118.048    -127.656
  C      298.107     118.115    -128.043
  O      298.524     117.438    -128.979
  N      298.962     118.922    -127.329
  C      298.513     119.626    -126.335
  N      299.410     120.405    -125.666
  C      297.107     119.600    -125.901
  C      296.295     118.803    -126.597
  O      290.705     117.880    -125.125
  O      292.470     118.518    -123.320
  H      295.538     113.883    -128.538
  H      290.707     116.924    -124.872
  H      296.778     120.192    -125.057
  H      295.242     118.732    -126.337
  H      296.194     117.198    -129.479
  H      296.890     115.388    -127.470
  H      295.118     116.250    -126.011
  H      293.324     115.892    -128.507
  H      300.379     120.354    -125.952
  H      292.044     117.799    -127.460
  H      299.188     120.868    -124.791
  H      291.951     116.255    -126.569
  P      294.548     113.916    -125.058
  C      292.739     112.059    -124.854
  O      294.122     112.375    -124.996
  O      293.365     114.667    -124.288
  O      295.887     114.231    -124.463
  H      293.636     114.913    -123.383
  H      292.617     110.996    -124.828
  H      292.194     112.461    -125.683
  H      292.368     112.483    -123.944

 6  7  8  9  10  11  12  13  14  15  16  26  30  31  32  33  35 0
 6-311+G(2d,p)
 ****
 37  38 0
 6-311+G(2d,p)
 ****
 1  2  3  4  5  17  18  19  20  21  22  23  24  25 0
 3-21G
 ****
 27  28  29  34  36  39  40  41  42  43  44  45  46 0
 3-21G
 ****


