%nproc=1
%NoSave
%Mem=1900MB
#P OB98/GEN NMR

erre ene a

0 1
  C      274.128      18.141     327.335
  O      272.774      18.363     327.689
  P      271.997      17.153     328.406
  C      270.348      17.108     326.375
  O      271.206      16.381     327.243
  C      269.469      16.136     325.580
  O      270.280      15.377     324.654
  C      268.736      15.116     326.434
  O      267.561      15.682     326.987
  C      268.469      14.006     325.427
  O      267.318      14.313     324.616
  C      269.757      14.021     324.588
  N      270.766       9.137     325.422
  C      269.564       9.761     325.132
  N      268.484       8.957     325.005
  N      269.435      11.055     324.981
  C      270.592      11.730     325.150
  C      271.843      11.231     325.451
  C      271.982       9.798     325.566
  O      273.036       9.193     325.724
  N      272.771      12.232     325.567
  C      272.095      13.331     325.305
  N      270.769      13.079     325.023
  O      270.848      17.899     329.236
  O      272.847      16.270     329.266
  H      267.048      13.516     324.125
  H      271.112      17.998     330.169
  H      270.810       8.138     325.511
  H      272.516      14.325     325.283
  H      269.560      13.806     323.524
  H      268.266      13.046     325.909
  H      268.506       7.958     325.129
  H      269.391      14.739     327.232
  H      267.599       9.397     324.798
  H      268.759      16.729     324.992
  H      270.954      17.697     325.681
  H      269.727      17.791     326.971
  P      266.710      14.785     328.015
  C      264.668      14.967     326.420
  O      265.512      14.125     327.182
  O      265.988      15.868     328.940
  O      267.531      13.832     328.824
  H      265.933      15.531     329.853
  H      264.292      14.405     325.558
  H      265.196      15.854     326.061
  H      263.819      15.279     327.037
  H      274.523      19.019     326.869
  H      274.188      17.318     326.654
  H      274.695      17.918     328.215

 3  4  5  6  7  8  9  10  11  12  23  26  30  31 0
 6-311+G(2d,p)
 ****
 33  35  36  37  38 0
 6-311+G(2d,p)
 ****
 1  2  13  14  15  16  17  18  19  20  21  22  24  25 0
 3-21G
 ****
 27  28  29  32  34  39  40  41  42  43  44  45  46  47  48  49 0
 3-21G
 ****


