%nproc=1
%NoSave
%Mem=1900MB
#P OB98/GEN NMR

erre ene a

0 1
  C      181.507    -105.887      34.708
  O      180.346    -105.273      35.232
  H      181.220    -106.823      34.222
  H      182.201    -106.112      35.521
  H      181.991    -105.240      33.971
  P      180.483    -103.742      35.694
  C      179.853    -104.449      38.111
  O      179.586    -103.584      37.017
  C      178.924    -104.129      39.277
  O      179.161    -105.036      40.374
  C      179.084    -102.721      39.841
  O      178.348    -101.767      39.086
  C      178.484    -102.902      41.226
  O      177.043    -102.921      41.132
  C      179.000    -104.293      41.617
  N      181.312    -103.220      46.001
  C      179.998    -103.025      45.621
  N      179.187    -102.455      46.538
  N      179.521    -103.353      44.448
  C      180.453    -103.891      43.625
  C      181.784    -104.128      43.884
  C      182.292    -103.776      45.189
  O      183.446    -103.938      45.578
  N      182.416    -104.687      42.804
  C      181.474    -104.765      41.886
  N      180.264    -104.293      42.333
  O      179.647    -102.960      34.573
  O      181.879    -103.228      35.788
  H      176.808    -103.623      40.498
  H      180.271    -102.549      33.944
  H      181.629    -102.940      46.912
  H      181.611    -105.162      40.889
  H      178.284    -104.843      42.236
  H      178.746    -102.092      41.908
  H      179.494    -102.158      47.451
  H      180.140    -102.438      39.932
  H      178.219    -102.305      46.282
  H      177.892    -104.293      38.937
  H      180.893    -104.315      38.426
  H      179.706    -105.485      37.790
  P      179.116    -100.463      38.557
  C      180.273     -99.726      40.757
  O      179.253     -99.460      39.805
  O      178.015     -99.760      37.632
  O      180.373    -100.727      37.802
  H      178.287     -99.808      36.695
  H      180.246     -98.982      41.526
  H      181.227     -99.704      40.273
  H      180.114    -100.692      41.189

 6  7  8  9  10  11  12  13  14  15  26  29  33  34 0
 6-311+G(2d,p)
 ****
 36  38  39  40  41 0
 6-311+G(2d,p)
 ****
 1  2  3  4  5  16  17  18  19  20  21  22  23  24  25 0
 3-21G
 ****
 27  28  30  31  32  35  37  42  43  44  45  46  47 0
 3-21G
 ****
 48  49 0
 3-21G
 ****


