%nproc=1
%NoSave
%Mem=1900MB
#P OB98/GEN NMR

erre ene a

0 1
  C      428.880    -216.497    -317.919
  O      430.132    -217.118    -318.124
  H      428.093    -217.241    -318.065
  H      428.738    -215.693    -318.645
  H      428.800    -216.100    -316.902
  P      431.465    -216.295    -317.790
  C      431.687    -217.538    -315.537
  O      431.616    -216.282    -316.195
  C      432.029    -217.355    -314.056
  O      433.233    -216.539    -313.953
  C      430.930    -216.651    -313.233
  O      431.021    -217.154    -311.895
  C      431.399    -215.207    -313.314
  O      430.719    -214.365    -312.419
  C      432.904    -215.422    -313.099
  N      433.750    -214.273    -313.405
  C      434.375    -213.630    -312.345
  O      434.275    -213.966    -311.166
  N      435.152    -212.549    -312.677
  C      435.366    -212.073    -313.936
  O      436.097    -211.120    -314.178
  C      434.672    -212.789    -315.016
  C      433.910    -213.837    -314.706
  O      431.585    -214.962    -318.449
  O      432.642    -217.284    -318.248
  H      432.992    -216.998    -319.112
  H      430.695    -214.795    -311.533
  H      435.620    -212.077    -311.921
  H      434.809    -212.427    -316.028
  H      433.392    -214.393    -315.484
  H      433.091    -215.737    -312.068
  H      431.198    -214.805    -314.309
  H      429.927    -216.822    -313.626
  H      432.274    -218.336    -313.626
  H      432.466    -218.134    -316.025
  H      430.725    -218.054    -315.642
  P      429.864    -216.957    -310.795
  C      430.303    -219.262    -309.710
  O      429.356    -218.415    -310.343
  O      428.761    -216.047    -311.237
  O      430.606    -216.383    -309.499
  H      429.974    -215.864    -308.968
  H      429.839    -220.194    -309.463
  H      430.660    -218.793    -308.817
  H      431.124    -219.437    -310.373

 6  7  8  9  10  11  12  13  14  15  16  27  31  32  33  34  35 0
 6-311+G(2d,p)
 ****
 36  37 0
 6-311+G(2d,p)
 ****
 1  2  3  4  5  17  18  19  20  21  22  23  24  25 0
 3-21G
 ****
 26  28  29  30  38  39  40  41  42  43  44  45 0
 3-21G
 ****


