%nproc=1
%NoSave
%Mem=1900MB
#P OB98/GEN NMR

erre ene a

0 1
  C      -29.199     318.792     542.075
  O      -28.165     318.363     541.184
  P      -26.648     318.169     541.677
  C      -25.826     320.597     541.469
  O      -26.104     319.520     542.359
  C      -24.860     321.632     542.057
  O      -23.640     320.995     542.539
  C      -24.424     322.735     541.083
  O      -24.206     323.902     541.880
  C      -23.108     322.193     540.552
  O      -22.280     323.187     539.964
  C      -22.531     321.575     541.824
  N      -17.548     320.761     540.959
  C      -18.216     321.850     541.392
  N      -19.536     321.981     541.632
  C      -20.178     320.817     541.426
  C      -19.629     319.620     540.992
  C      -18.244     319.623     540.743
  N      -17.564     318.530     540.260
  N      -20.604     318.652     540.864
  C      -21.724     319.260     541.204
  N      -21.518     320.567     541.558
  O      -25.732     317.608     540.639
  O      -26.763     317.153     542.907
  H      -22.262     323.958     540.551
  H      -26.076     316.465     542.821
  H      -17.614     322.743     541.558
  H      -22.707     318.813     541.193
  H      -22.079     322.334     542.472
  H      -23.311     321.434     539.788
  H      -25.150     322.932     540.294
  H      -25.341     322.072     542.934
  H      -26.768     321.084     541.214
  H      -16.593     318.651     540.023
  H      -18.085     317.711     539.974
  H      -25.404     320.183     540.546
  P      -25.220     325.137     541.866
  C      -24.153     326.463     539.956
  O      -25.265     325.682     540.361
  O      -24.958     326.180     542.894
  O      -26.666     324.473     542.057
  H      -27.300     325.148     542.359
  H      -24.238     327.468     540.377
  H      -24.150     326.537     538.861
  H      -23.217     326.005     540.281
  H      -30.125     318.855     541.543
  H      -28.951     319.754     542.473
  H      -29.294     318.089     542.876

 3  4  5  6  7  8  9  10  11  12  22  25  29  30  31  32 0
 6-311+G(2d,p)
 ****
 33  36  37 0
 6-311+G(2d,p)
 ****
 1  2  13  14  15  16  17  18  19  20  21  23  24  26 0
 3-21G
 ****
 27  28  34  35  38  39  40  41  42  43  44  45  46  47  48 0
 3-21G
 ****


