%nproc=1
%NoSave
%Mem=1900MB
#P OB98/GEN NMR

erre ene a

0 1
  C      260.776     199.333    -205.901
  O      260.421     199.353    -204.533
  H      260.176     200.081    -206.427
  H      260.562     198.352    -206.332
  H      261.833     199.578    -206.032
  P      261.226     198.414    -203.511
  C      263.009     200.153    -202.871
  O      261.899     199.387    -202.425
  C      263.999     200.382    -201.730
  O      265.214     200.957    -202.275
  C      263.477     201.327    -200.643
  O      263.930     200.853    -199.374
  C      264.156     202.644    -200.967
  O      264.304     203.476    -199.817
  C      265.485     202.178    -201.558
  N      269.822     204.073    -203.324
  C      269.593     202.993    -202.493
  N      270.680     202.331    -202.043
  N      268.400     202.598    -202.131
  C      267.401     203.342    -202.668
  C      267.497     204.432    -203.499
  C      268.825     204.869    -203.882
  O      269.092     205.824    -204.602
  N      266.259     204.935    -203.807
  C      265.416     204.152    -203.160
  N      266.061     203.177    -202.446
  O      262.172     197.444    -204.142
  O      260.080     197.673    -202.680
  H      264.972     203.050    -199.238
  H      259.939     196.769    -203.017
  H      270.761     204.338    -203.564
  H      264.338     204.248    -203.169
  H      266.235     201.967    -200.785
  H      263.564     203.191    -201.713
  H      271.629     202.568    -202.292
  H      262.386     201.414    -200.641
  H      270.535     201.521    -201.450
  H      264.271     199.407    -201.306
  H      262.637     201.116    -203.235
  H      263.503     199.628    -203.698
  P      262.939     199.959    -198.485
  C      263.976     197.651    -198.984
  O      263.740     198.655    -198.001
  O      261.596     199.696    -199.082
  O      262.815     200.810    -197.129
  H      261.934     200.649    -196.736
  H      264.514     196.839    -198.542
  H      264.550     198.065    -199.786
  H      263.040     197.295    -199.362

 6  7  8  9  10  11  12  13  14  15  26  29  33  34 0
 6-311+G(2d,p)
 ****
 36  38  39  40  41 0
 6-311+G(2d,p)
 ****
 1  2  3  4  5  16  17  18  19  20  21  22  23  24  25 0
 3-21G
 ****
 27  28  30  31  32  35  37  42  43  44  45  46  47 0
 3-21G
 ****
 48  49 0
 3-21G
 ****


