%nproc=1
%NoSave
%Mem=1900MB
#P OB98/GEN NMR

erre ene a

0 1
  C      397.142    -105.580    -384.595
  O      396.030    -104.870    -385.099
  H      398.048    -105.211    -385.088
  H      397.034    -106.646    -384.803
  H      397.235    -105.415    -383.517
  P      394.592    -105.257    -384.506
  C      392.769    -107.015    -385.100
  O      394.011    -106.418    -385.460
  C      392.733    -108.475    -385.556
  O      392.636    -108.523    -387.001
  C      393.982    -109.285    -385.141
  O      393.570    -110.618    -384.789
  C      394.787    -109.346    -386.433
  O      395.687    -110.447    -386.449
  C      393.665    -109.424    -387.463
  N      395.474    -111.314    -391.773
  C      395.047    -111.949    -390.623
  N      395.125    -113.300    -390.610
  N      394.599    -111.322    -389.568
  C      394.554    -109.976    -389.732
  C      394.952    -109.224    -390.811
  C      395.467    -109.935    -391.964
  O      395.871    -109.422    -393.002
  N      394.776    -107.881    -390.569
  C      394.278    -107.824    -389.340
  N      394.129    -109.065    -388.801
  O      393.677    -103.992    -384.874
  O      394.554    -105.569    -383.044
  H      396.307    -110.321    -387.198
  H      392.968    -103.867    -384.215
  H      395.817    -111.841    -392.553
  H      394.015    -106.912    -388.817
  H      393.235    -110.431    -387.536
  H      395.369    -108.419    -386.545
  H      395.434    -113.853    -391.393
  H      394.541    -108.842    -384.320
  H      394.816    -113.797    -389.779
  H      391.819    -108.942    -385.159
  H      391.956    -106.462    -385.579
  H      392.647    -106.959    -384.012
  P      394.049    -111.187    -383.370
  C      396.231    -112.181    -382.363
  O      395.530    -111.797    -383.541
  O      393.127    -112.495    -383.174
  O      393.869    -110.235    -382.236
  H      392.462    -112.329    -382.486
  H      397.193    -112.566    -382.630
  H      395.675    -112.936    -381.848
  H      396.351    -111.330    -381.726

 6  7  8  9  10  11  12  13  14  15  26  29  33  34 0
 6-311+G(2d,p)
 ****
 36  38  39  40  41 0
 6-311+G(2d,p)
 ****
 1  2  3  4  5  16  17  18  19  20  21  22  23  24  25 0
 3-21G
 ****
 27  28  30  31  32  35  37  42  43  44  45  46  47 0
 3-21G
 ****
 48  49 0
 3-21G
 ****


