%nproc=1
%NoSave
%Mem=1900MB
#P OB98/GEN NMR

erre ene a

0 1
  C       23.324    -111.376      53.053
  O       24.278    -112.080      53.824
  H       23.664    -111.346      52.015
  H       23.225    -110.353      53.424
  H       22.356    -111.882      53.094
  P       23.940    -112.269      55.380
  C       25.453    -114.379      55.615
  O       25.197    -113.041      56.013
  C       26.690    -114.919      56.341
  O       27.882    -114.423      55.662
  C       26.790    -114.468      57.808
  O       27.476    -115.489      58.554
  C       27.683    -113.245      57.696
  O       28.207    -112.899      58.956
  C       28.679    -113.748      56.657
  N       31.418    -112.414      52.569
  C       30.691    -113.517      52.846
  N       29.979    -113.794      53.958
  C       30.047    -112.771      54.828
  C       30.749    -111.587      54.688
  C       31.469    -111.425      53.493
  N       32.231    -110.313      53.214
  N       30.596    -110.796      55.812
  C       29.810    -111.490      56.612
  N       29.453    -112.687      56.057
  O       22.781    -113.373      55.371
  O       23.530    -111.034      56.107
  H       28.529    -113.691      59.433
  H       21.908    -112.940      55.359
  H       30.678    -114.280      52.072
  H       29.480    -111.181      57.595
  H       29.385    -114.477      57.074
  H       27.124    -112.382      57.324
  H       25.819    -114.268      58.268
  H       26.709    -116.013      56.257
  H       25.617    -114.397      54.533
  H       24.587    -115.003      55.859
  H       32.738    -110.288      52.345
  H       32.308    -109.583      53.907
  P       26.673    -116.304      59.682
  C       27.790    -118.643      59.380
  O       27.558    -117.528      60.225
  O       25.553    -117.056      58.815
  O       26.030    -115.470      60.741
  H       24.685    -116.969      59.251
  H       28.393    -119.361      59.895
  H       28.297    -118.320      58.495
  H       26.855    -119.089      59.113

 6  7  8  9  10  11  12  13  14  15  25  28  32  33  34  35 0
 6-311+G(2d,p)
 ****
 36  37  40 0
 6-311+G(2d,p)
 ****
 1  2  3  4  5  16  17  18  19  20  21  22  23  24 0
 3-21G
 ****
 26  27  29  30  31  38  39 41  42  43  44  45  46  47  48 0
 3-21G
 ****


