%nproc=1
%NoSave
%Mem=1900MB
#P OB98/GEN NMR

erre ene a

0 1
  C      -49.255    -899.040     280.124
  O      -50.010    -898.190     279.280
  H      -49.770    -900.000     280.199
  H      -49.163    -898.610     281.127
  H      -48.260    -899.210     279.695
  P      -49.606    -896.640     279.207
  C      -51.808    -896.090     280.446
  O      -50.993    -895.830     279.306
  C      -52.705    -894.890     280.765
  O      -51.901    -893.730     281.057
  C      -53.601    -894.480     279.609
  O      -54.622    -895.400     279.314
  C      -53.961    -893.040     279.978
  O      -55.079    -892.940     280.848
  C      -52.686    -892.570     280.714
  N      -51.914    -891.600     279.927
  C      -52.021    -890.280     280.338
  O      -52.716    -889.910     281.288
  N      -51.312    -889.370     279.593
  C      -50.587    -889.650     278.482
  O      -50.015    -888.780     277.828
  C      -50.542    -891.070     278.064
  C      -51.205    -891.970     278.806
  O      -48.754    -896.240     278.042
  O      -48.923    -896.360     280.626
  H      -55.864    -893.260     280.336
  H      -48.399    -895.530     280.612
  H      -51.355    -888.410     279.891
  H      -49.983    -891.320     277.189
  H      -51.194    -893.020     278.525
  H      -52.958    -892.090     281.669
  H      -54.191    -892.450     279.081
  H      -52.974    -894.410     278.700
  H      -53.303    -895.130     281.654
  H      -51.134    -896.280     281.288
  H      -52.412    -896.980     280.272
  P      -54.767    -896.120     277.895
  C      -55.521    -894.120     276.424
  O      -55.893    -895.340     277.035
  O      -54.777    -897.620     277.905
  O      -53.405    -895.660     277.164
  H      -53.110    -896.400     276.592
  H      -56.358    -893.718     275.892
  H      -54.715    -894.294     275.742
  H      -55.209    -893.425     277.176

 6  7  8  9  10  11  12  13  14  15  16  26  31  32  33  34  35 0
 6-311+G(2d,p)
 ****
 36  37 0
 6-311+G(2d,p)
 ****
 1  2  3  4  5  17  18  19  20  21  22  23  24  25 0
 3-21G
 ****
 27  28  29  30  38  39  40  41  42  43  44  45 0
 3-21G
 ****


