%nproc=1
%NoSave
%Mem=1900MB
#P OB98/GEN NMR

erre ene a

0 1
  C      514.369     655.956    -898.950
  O      513.826     654.661    -898.780
  H      514.311     656.223    -900.000
  H      515.415     655.952    -898.650
  H      513.812     656.689    -898.360
  P      513.795     654.078    -897.270
  C      511.188     654.285    -897.150
  O      512.461     654.685    -896.610
  C      510.124     654.403    -896.050
  O      510.240     653.320    -895.110
  C      510.189     655.746    -895.270
  O      508.868     656.259    -895.100
  C      510.780     655.337    -893.940
  O      510.414     656.218    -892.880
  C      510.277     653.878    -893.800
  N      511.162     653.090    -892.930
  C      510.977     653.262    -891.530
  O      510.113     654.046    -891.100
  N      511.798     652.578    -890.670
  C      512.748     651.828    -891.130
  N      513.530     651.201    -890.210
  C      512.996     651.669    -892.580
  C      512.188     652.301    -893.410
  O      514.972     654.865    -896.550
  O      513.901     652.586    -897.170
  H      510.805     655.867    -892.060
  H      515.207     654.469    -895.680
  H      513.814     651.033    -892.940
  H      512.289     652.264    -894.470
  H      509.257     653.866    -893.360
  H      511.888     655.343    -894.020
  H      510.795     656.485    -895.760
  H      509.132     654.287    -896.540
  H      513.326     651.333    -889.240
  H      511.267     653.235    -897.470
  H      514.331     650.612    -890.490
  H      510.943     654.911    -898.000
  P      508.243     657.012    -896.390
  C      506.221     655.360    -896.600
  O      507.390     655.925    -897.210
  O      509.517     657.261    -897.300
  O      507.535     658.241    -896.040
  H      509.838     658.168    -897.190
  H      505.771     654.659    -897.272
  H      505.523     656.140    -896.378
  H      506.497     654.860    -895.695

 6  7  8  9  10  11  12  13  14  15  16  26  30  31  32  33  35 0
 6-311+G(2d,p)
 ****
 37  38 0
 6-311+G(2d,p)
 ****
 1  2  3  4  5  17  18  19  20  21  22  23  24  25 0
 3-21G
 ****
 27  28  29  34  36  39  40  41  42  43  44  45  46 0
 3-21G
 ****


