%nproc=1
%NoSave
%Mem=1900MB
#P OB98/GEN NMR

erre ene a

0 1
  C      316.517     217.591     142.369
  O      316.080     216.255     142.496
  P      316.776     215.199     143.471
  C      317.176     213.610     141.448
  O      317.736     214.257     142.592
  C      318.063     213.731     140.200
  O      318.492     215.102     140.043
  C      319.336     212.894     140.374
  O      319.315     211.506     140.092
  C      320.424     213.683     139.655
  O      320.683     213.189     138.341
  C      319.861     215.104     139.605
  N      324.000     218.019     139.918
  C      323.452     217.403     138.806
  N      324.208     217.412     137.689
  N      322.283     216.815     138.812
  C      321.687     216.804     140.028
  C      322.122     217.391     141.192
  C      323.397     218.075     141.165
  O      323.956     218.558     142.148
  N      321.295     217.110     142.246
  C      320.374     216.315     141.734
  N      320.592     216.070     140.396
  O      315.903     214.565     144.510
  O      317.842     216.131     144.249
  H      321.119     212.325     138.427
  H      317.918     215.798     145.160
  H      324.940     218.389     139.875
  H      319.558     215.870     142.287
  H      319.854     215.474     138.574
  H      321.371     213.610     140.201
  H      325.171     217.727     137.692
  H      319.602     212.944     141.438
  H      323.919     216.827     136.916
  H      317.497     213.493     139.293
  H      316.191     214.062     141.271
  H      317.008     212.552     141.670
  P      319.509     210.325     141.149
  C      321.497     209.601     139.709
  O      321.011     209.771     141.025
  O      318.635     209.115     140.555
  O      319.069     210.640     142.542
  H      318.408     208.493     141.274
  H      322.378     208.956     139.740
  H      321.782     210.571     139.295
  H      320.737     209.137     139.062
  H      315.899     218.103     141.661
  H      317.532     217.604     142.031
  H      316.451     218.080     143.319

 3  4  5  6  7  8  9  10  11  12  23  26  30  31 0
 6-311+G(2d,p)
 ****
 33  35  36  37  38 0
 6-311+G(2d,p)
 ****
 1  2  13  14  15  16  17  18  19  20  21  22  24  25 0
 3-21G
 ****
 27  28  29  32  34  39  40  41  42  43  44  45  46  47  48  49 0
 3-21G
 ****


