%nproc=1
%NoSave
%Mem=1900MB
#P OB98/GEN NMR

erre ene a

0 1
  C      -48.397     244.196     -93.963
  O      -47.445     243.779     -94.933
  P      -46.935     244.855     -96.007
  C      -47.911     245.963     -98.140
  O      -48.142     245.092     -97.042
  C      -49.218     246.330     -98.840
  O      -50.064     247.059     -97.908
  C      -49.049     247.210    -100.083
  O      -50.089     246.850    -101.003
  C      -49.318     248.607     -99.555
  O      -49.684     249.516    -100.591
  C      -50.421     248.308     -98.542
  N      -52.406     252.913     -97.533
  C      -52.485     252.121     -98.623
  N      -51.930     250.906     -98.817
  C      -51.229     250.524     -97.735
  C      -51.031     251.242     -96.566
  C      -51.664     252.495     -96.480
  N      -51.593     253.300     -95.368
  N      -50.229     250.536     -95.693
  C      -49.948     249.412     -96.323
  N      -50.551     249.353     -97.548
  O      -45.868     244.021     -96.859
  O      -46.328     246.089     -95.433
  H      -50.000     250.340    -100.174
  H      -44.967     244.362     -96.690
  H      -53.078     252.508     -99.446
  H      -49.318     248.622     -95.940
  H      -51.399     248.175     -99.023
  H      -48.420     248.997     -99.063
  H      -48.070     247.123    -100.565
  H      -49.745     245.403     -99.094
  H      -47.260     245.457     -98.859
  H      -52.183     254.116     -95.330
  H      -51.204     252.917     -94.511
  H      -47.401     246.868     -97.789
  P      -49.841     247.193    -102.549
  C      -49.119     249.483    -103.526
  O      -50.029     248.774    -102.708
  O      -51.132     246.580    -103.273
  O      -48.576     246.624    -103.105
  H      -50.912     246.334    -104.192
  H      -49.646     250.317    -104.001
  H      -48.686     248.847    -104.305
  H      -48.312     249.884    -102.902
  H      -48.637     243.373     -93.322
  H      -49.284     244.535     -94.456
  H      -47.986     244.994     -93.380

 3  4  5  6  7  8  9  10  11  12  22  25  29  30  31  32 0
 6-311+G(2d,p)
 ****
 33  36  37 0
 6-311+G(2d,p)
 ****
 1  2  13  14  15  16  17  18  19  20  21  23  24  26 0
 3-21G
 ****
 27  28  34  35  38  39  40  41  42  43  44  45  46  47  48 0
 3-21G
 ****


