%nproc=1
%NoSave
%Mem=1900MB
#P OB98/GEN NMR

erre ene a

0 1
  C     -728.274    -401.274    -191.919
  O     -727.629    -402.202    -192.772
  H     -727.584    -400.455    -191.699
  H     -728.553    -401.744    -190.968
  H     -729.162    -400.865    -192.404
  P     -728.382    -403.576    -193.104
  C     -730.231    -402.348    -194.437
  O     -729.917    -403.173    -193.325
  C     -730.813    -403.190    -195.568
  O     -731.988    -403.891    -195.120
  C     -731.257    -402.352    -196.768
  O     -730.149    -401.932    -197.534
  C     -732.195    -403.332    -197.454
  O     -731.472    -404.294    -198.232
  C     -732.887    -404.003    -196.245
  N     -734.194    -403.410    -195.938
  C     -735.302    -404.142    -196.340
  O     -735.164    -405.228    -196.912
  N     -736.557    -403.626    -196.094
  C     -736.682    -402.477    -195.503
  N     -737.940    -402.018    -195.284
  C     -735.519    -401.681    -195.053
  C     -734.318    -402.194    -195.299
  O     -728.164    -404.712    -192.152
  O     -727.887    -403.925    -194.588
  H     -731.065    -403.803    -198.962
  H     -727.078    -404.468    -194.560
  H     -735.666    -400.728    -194.547
  H     -733.418    -401.667    -195.007
  H     -733.032    -405.072    -196.429
  H     -732.889    -402.816    -198.127
  H     -731.853    -401.495    -196.433
  H     -730.066    -403.938    -195.866
  H     -738.702    -402.592    -195.630
  H     -729.299    -401.867    -194.760
  H     -738.154    -401.190    -194.755
  H     -730.942    -401.564    -194.155
  P     -729.889    -400.378    -197.809
  C     -727.808    -400.388    -196.278
  O     -729.098    -399.844    -196.507
  O     -731.098    -399.591    -198.182
  O     -728.747    -400.386    -198.928
  H     -729.121    -400.641    -199.816
  H     -727.391    -399.957    -195.392
  H     -727.175    -400.169    -197.113
  H     -727.884    -401.448    -196.157

 6  7  8  9  10  11  12  13  14  15  16  26  30  31  32  33  35 0
 6-311+G(2d,p)
 ****
 37  38 0
 6-311+G(2d,p)
 ****
 1  2  3  4  5  17  18  19  20  21  22  23  24  25 0
 3-21G
 ****
 27  28  29  34  36  39  40  41  42  43  44  45  46 0
 3-21G
 ****


