%nproc=1
%NoSave
%Mem=1900MB
#P OB98/GEN NMR

erre ene a

0 1
  C      152.898     295.922    -160.583
  O      154.202     296.417    -160.818
  H      152.716     295.081    -161.258
  H      152.157     296.701    -160.782
  H      152.807     295.576    -159.550
  P      154.625     297.734    -160.001
  C      153.305     299.974    -159.788
  O      153.673     298.876    -160.610
  C      152.181     300.764    -160.451
  O      151.220     299.869    -161.056
  C      151.370     301.631    -159.487
  O      152.027     302.834    -159.127
  C      150.140     301.895    -160.347
  O      150.463     302.858    -161.362
  C      149.908     300.493    -160.955
  N      149.006     299.664    -160.153
  C      147.661     300.059    -160.108
  O      147.281     301.055    -160.718
  N      146.788     299.330    -159.343
  C      147.203     298.285    -158.692
  N      146.288     297.606    -157.948
  C      148.601     297.830    -158.717
  C      149.442     298.551    -159.457
  O      156.056     298.105    -160.616
  O      154.599     297.618    -158.513
  H      151.211     302.493    -161.868
  H      156.345     298.993    -160.283
  H      148.909     296.960    -158.148
  H      150.489     298.278    -159.524
  H      149.504     300.569    -161.972
  H      149.297     302.292    -159.783
  H      151.066     301.070    -158.597
  H      152.621     301.367    -161.251
  H      145.349     297.983    -157.901
  H      154.188     300.612    -159.651
  H      146.543     296.881    -157.291
  H      152.974     299.616    -158.810
  P      151.425     303.656    -157.878
  C      149.003     304.132    -157.056
  O      149.854     303.824    -158.149
  O      151.997     305.126    -158.108
  O      151.790     303.107    -156.535
  H      152.180     305.568    -157.256
  H      147.993     304.210    -157.401
  H      149.304     305.062    -156.621
  H      149.070     303.356    -156.322

 6  7  8  9  10  11  12  13  14  15  16  26  30  31  32  33  35 0
 6-311+G(2d,p)
 ****
 37  38 0
 6-311+G(2d,p)
 ****
 1  2  3  4  5  17  18  19  20  21  22  23  24  25 0
 3-21G
 ****
 27  28  29  34  36  39  40  41  42  43  44  45  46 0
 3-21G
 ****


