%nproc=1
%NoSave
%Mem=1900MB
#P OB98/GEN NMR

erre ene a

0 1
  C     -915.444     917.260     299.248
  O     -916.334     918.379     299.130
  P     -917.918     918.161     299.394
  C     -917.950     917.473     301.929
  O     -918.215     918.467     300.936
  C     -916.997     918.007     302.985
  O     -915.690     918.251     302.429
  C     -917.423     919.351     303.602
  O     -918.479     919.184     304.553
  C     -916.116     919.817     304.231
  O     -915.908     919.222     305.511
  C     -915.071     919.305     303.208
  N     -914.551     920.383     302.353
  C     -913.327     920.901     302.713
  O     -912.713     920.580     303.718
  N     -912.831     921.893     301.882
  C     -913.475     922.417     300.797
  O     -912.997     923.309     300.105
  C     -914.812     921.870     300.508
  C     -915.286     920.900     301.304
  O     -918.044     916.567     299.348
  O     -918.826     918.808     298.413
  H     -915.896     918.261     305.404
  H     -918.939     916.319     299.055
  H     -911.934     922.279     302.113
  H     -915.364     922.276     299.674
  H     -916.267     920.466     301.106
  H     -914.233     918.827     303.731
  H     -916.094     920.919     304.375
  H     -917.715     920.042     302.810
  H     -916.891     917.241     303.777
  H     -917.508     916.601     301.453
  H     -918.912     917.163     302.382
  P     -919.510     920.400     304.683
  C     -921.678     918.938     304.433
  O     -920.855     919.734     305.266
  O     -919.849     920.698     303.130
  O     -918.959     921.557     305.433
  H     -919.812     919.896     302.611
  H     -921.080     918.369     303.719
  H     -922.397     919.568     303.913
  H     -922.212     918.220     305.078
  H     -914.443     917.577     299.043
  H     -915.729     916.502     298.548
  H     -915.497     916.866     300.241

 3  4  5  6  7  8  9  10  11  12  13  23  28  29  30  31  32 0
 6-311+G(2d,p)
 ****
 33  34 0
 6-311+G(2d,p)
 ****
 1  2  14  15  16  17  18  19  20  21  22  24  25  26 0
 3-21G
 ****
 27  35  36  37  38  39  40  41  42  43  44  45 0
 3-21G
 ****


