%nproc=1
%NoSave
%Mem=1900MB
#P OB98/GEN NMR

erre ene a

0 1
  C       13.135      10.383      25.984
  O       13.276       9.085      25.433
  P       12.108       8.003      25.572
  C       10.939       9.099      23.492
  O       10.829       8.537      24.781
  C        9.665       8.777      22.700
  O        9.783       7.484      22.073
  C        8.434       8.754      23.603
  O        7.780      10.012      23.589
  C        7.606       7.634      23.003
  O        6.867       8.110      21.862
  C        8.703       6.640      22.554
  N        9.259       5.717      23.562
  C        9.293       4.351      23.300
  O        8.908       3.848      22.249
  N        9.769       3.562      24.317
  C       10.243       4.008      25.516
  O       10.435       3.295      26.494
  C       10.434       5.457      25.621
  C        9.921       6.233      24.667
  O       11.675       8.134      27.106
  O       12.482       6.603      25.213
  H        6.318       8.855      22.166
  H       12.092       7.434      27.642
  H        9.666       2.561      24.187
  H       10.936       5.847      26.496
  H       10.016       7.314      24.743
  H        8.358       6.029      21.713
  H        6.866       7.267      23.712
  H        8.718       8.471      24.624
  H        9.542       9.526      21.908
  H       11.819       8.696      22.980
  H       11.075      10.183      23.565
  P        6.881      10.449      24.838
  C        8.748      11.071      26.480
  O        7.767      10.114      26.133
  O        5.491       9.904      24.855
  O        6.892      12.049      24.756
  H        6.076      12.364      24.317
  H        9.150      10.819      27.464
  H        8.310      12.073      26.520
  H        9.560      11.049      25.749
  H       14.019      10.953      25.786
  H       12.989      10.308      27.041
  H       12.291      10.869      25.541

 3  4  5  6  7  8  9  10  11  12  13  23  28  29  30  31  32 0
 6-311+G(2d,p)
 ****
 33  34 0
 6-311+G(2d,p)
 ****
 1  2  14  15  16  17  18  19  20  21  22  24  25  26  27 0
 3-21G
 ****
 35  36  37  38  39  40  41  42  43  44  45 0
 3-21G
 ****


