%nproc=1
%NoSave
%Mem=1900MB
#P OB98/GEN NMR

erre ene a

0 1
  C     -444.539    -188.633      76.649
  O     -444.709    -187.221      76.781
  P     -443.446    -186.389      77.331
  C     -443.660    -184.646      75.409
  O     -442.831    -185.570      76.094
  C     -444.239    -185.274      74.144
  O     -445.041    -186.423      74.450
  C     -445.150    -184.347      73.351
  O     -444.416    -183.428      72.557
  C     -445.886    -185.344      72.465
  O     -445.083    -185.670      71.318
  C     -446.022    -186.567      73.391
  N     -450.773    -188.220      72.750
  C     -449.693    -188.276      71.889
  N     -449.904    -188.882      70.700
  N     -448.514    -187.785      72.170
  C     -448.446    -187.232      73.408
  C     -449.443    -187.120      74.349
  C     -450.750    -187.642      74.012
  O     -451.747    -187.589      74.722
  N     -448.986    -186.509      75.488
  C     -447.710    -186.282      75.249
  N     -447.333    -186.687      73.994
  O     -442.354    -187.536      77.595
  O     -443.732    -185.598      78.562
  H     -444.203    -185.941      71.652
  H     -441.735    -187.252      78.294
  H     -451.655    -188.611      72.480
  H     -447.018    -185.833      75.952
  H     -445.800    -187.502      72.863
  H     -446.845    -184.957      72.089
  H     -450.759    -189.343      70.444
  H     -445.867    -183.837      74.009
  H     -449.107    -188.963      70.074
  H     -443.396    -185.592      73.506
  H     -443.088    -183.753      75.149
  H     -444.464    -184.322      76.086
  P     -444.069    -182.005      73.219
  C     -441.491    -182.311      73.345
  O     -442.716    -182.239      74.049
  O     -445.192    -181.841      74.342
  O     -444.059    -180.864      72.259
  H     -445.378    -180.898      74.496
  H     -441.433    -181.545      72.570
  H     -441.391    -183.305      72.890
  H     -440.672    -182.161      74.049
  H     -445.443    -189.068      76.277
  H     -444.307    -189.055      77.604
  H     -443.740    -188.834      75.967

 3  4  5  6  7  8  9  10  11  12  23  26  30  31  33  0
 6-311+G(2d,p)
 ****
 35  36  37  38 0
 6-311+G(2d,p)
 ****
 1  2  13  14  15  16  17  18  19  20  21  22  24  25  27  28  29 0
 3-21G
 ****
 32  34  39  40  41  42  43  44  45  46  47  48  49 0
 3-21G
 ****


