%nproc=1
%NoSave
%Mem=1900MB
#P OB98/GEN NMR

erre ene a

0 1
  C     -105.081     166.668     123.680
  O     -104.369     167.111     124.819
  H     -104.556     165.811     123.249
  H     -105.129     167.465     122.932
  H     -106.091     166.359     123.962
  P     -104.969     168.387     125.585
  C     -103.623     169.875     123.943
  O     -104.879     169.611     124.550
  C     -103.492     171.360     123.617
  O     -104.361     171.722     122.520
  C     -103.837     172.291     124.772
  O     -102.739     172.443     125.655
  C     -104.175     173.575     124.028
  O     -102.985     174.300     123.658
  C     -104.901     173.044     122.784
  N     -109.302     174.619     120.877
  C     -108.012     174.840     120.442
  N     -107.873     175.647     119.366
  N     -106.954     174.329     121.011
  C     -107.245     173.571     122.095
  C     -108.481     173.263     122.616
  C     -109.646     173.812     121.954
  O     -110.817     173.599     122.251
  N     -108.369     172.448     123.711
  C     -107.069     172.295     123.876
  N     -106.345     172.972     122.930
  O     -103.841     168.738     126.666
  O     -106.299     168.181     126.226
  H     -102.576     173.871     122.886
  H     -104.264     169.131     127.453
  H     -110.077     175.026     120.385
  H     -106.607     171.710     124.659
  H     -104.703     173.657     121.898
  H     -104.774     174.251     124.641
  H     -108.588     176.312     119.106
  H     -104.728     171.935     125.305
  H     -106.929     175.833     119.054
  H     -102.460     171.532     123.281
  H     -103.547     169.297     123.016
  H     -102.822     169.567     124.623
  P     -103.036     172.388     127.232
  C     -102.072     174.802     127.320
  O     -103.099     173.910     127.734
  O     -101.659     171.854     127.849
  O     -104.195     171.532     127.617
  H     -101.805     171.525     128.756
  H     -102.254     175.772     127.734
  H     -102.064     174.866     126.252
  H     -101.125     174.440     127.662

 6  7  8  9  10  11  12  13  14  15  26  29  33  34 0
 6-311+G(2d,p)
 ****
 36  38  39  40  41 0
 6-311+G(2d,p)
 ****
 1  2  3  4  5  16  17  18  19  20  21  22  23  24  25 0
 3-21G
 ****
 27  28  30  31  32  35  37  42  43  44  45  46  47 0
 3-21G
 ****
 48  49 0
 3-21G
 ****


