%nproc=1
%NoSave
%Mem=1900MB
#P OB98/GEN NMR

erre ene a

0 1
  C      -57.216     238.943      65.619
  O      -56.774     237.578      65.689
  P      -57.622     236.558      66.590
  C      -56.055     236.932      68.633
  O      -57.386     236.919      68.132
  C      -56.036     236.612      70.131
  O      -56.610     235.318      70.409
  C      -54.638     236.572      70.734
  O      -54.171     237.878      71.044
  C      -54.891     235.788      72.010
  O      -55.456     236.651      73.014
  C      -55.930     234.754      71.554
  N      -54.981     229.960      73.102
  C      -55.541     231.020      73.729
  N      -55.744     232.268      73.259
  C      -55.312     232.371      71.994
  C      -54.726     231.379      71.221
  C      -54.558     230.123      71.825
  N      -53.993     229.051      71.177
  N      -54.406     231.859      69.965
  C      -54.810     233.117      69.974
  N      -55.359     233.474      71.177
  O      -56.838     235.175      66.407
  O      -59.056     236.433      66.175
  H      -54.791     237.340      73.204
  H      -57.473     234.432      66.417
  H      -55.873     230.836      74.750
  H      -54.731     233.800      69.140
  H      -56.690     234.557      72.326
  H      -53.973     235.360      72.433
  H      -53.944     236.026      70.082
  H      -56.640     237.371      70.642
  H      -55.596     237.908      68.450
  H      -53.932     228.170      71.664
  H      -53.698     229.157      70.214
  H      -55.455     236.205      68.067
  P      -53.093     238.527      70.044
  C      -50.861     237.933      71.242
  O      -51.768     237.638      70.195
  O      -52.721     239.906      70.767
  O      -53.594     238.738      68.655
  H      -52.480     240.579      70.103
  H      -50.203     237.073      71.390
  H      -51.393     238.131      72.178
  H      -50.259     238.805      70.969
  H      -56.557     239.499      64.986
  H      -57.213     239.370      66.600
  H      -58.208     238.977      65.219

 3  4  5  6  7  8  9  10  11  12  22  25  29  30  31  32 0
 6-311+G(2d,p)
 ****
 33  36  37 0
 6-311+G(2d,p)
 ****
 1  2  13  14  15  16  17  18  19  20  21  23  24  26 0
 3-21G
 ****
 27  28  34  35  38  39  40  41  42  43  44  45  46  47  48 0
 3-21G
 ****


