%nproc=1
%NoSave
%Mem=1900MB
#P OB98/GEN NMR

erre ene a

0 1
  C     -612.040    -740.952    -213.077
  O     -611.152    -741.734    -213.876
  P     -610.932    -743.301    -213.629
  C     -608.517    -743.604    -212.780
  O     -609.890    -743.491    -212.420
  C     -607.624    -743.814    -211.552
  O     -608.082    -744.932    -210.767
  C     -606.151    -744.077    -211.874
  O     -605.484    -742.868    -212.204
  C     -605.697    -744.748    -210.587
  O     -605.398    -743.760    -209.581
  C     -606.928    -745.566    -210.186
  N     -604.606    -750.054    -209.374
  C     -604.495    -748.862    -208.767
  N     -605.145    -747.699    -209.042
  C     -606.009    -747.882    -210.054
  C     -606.241    -749.050    -210.776
  C     -605.484    -750.178    -210.394
  N     -605.584    -751.394    -211.032
  N     -607.185    -748.840    -211.753
  C     -607.539    -747.581    -211.621
  N     -606.850    -746.960    -210.605
  O     -610.593    -744.079    -214.863
  O     -612.324    -743.809    -213.008
  H     -604.722    -743.166    -209.946
  H     -612.459    -744.756    -213.225
  H     -603.784    -748.808    -207.940
  H     -608.277    -747.077    -212.229
  H     -607.081    -745.567    -209.102
  H     -604.790    -745.347    -210.732
  H     -606.084    -744.792    -212.700
  H     -607.721    -742.917    -210.924
  H     -608.226    -742.681    -213.305
  H     -604.998    -752.146    -210.718
  H     -606.209    -751.485    -211.831
  H     -608.401    -744.447    -213.470
  P     -605.269    -742.462    -213.733
  C     -602.718    -742.356    -213.578
  O     -603.831    -742.993    -214.179
  O     -605.559    -741.034    -214.063
  O     -606.266    -743.442    -214.518
  H     -606.572    -743.017    -215.343
  H     -602.533    -741.402    -214.077
  H     -601.839    -743.003    -213.672
  H     -602.898    -742.179    -212.500
  H     -612.029    -739.938    -213.419
  H     -611.725    -740.987    -212.055
  H     -613.032    -741.345    -213.158

 3  4  5  6  7  8  9  10  11  12  22  25  29  30  31  32 0
 6-311+G(2d,p)
 ****
 33  36  37 0
 6-311+G(2d,p)
 ****
 1  2  13  14  15  16  17  18  19  20  21  23  24  26 0
 3-21G
 ****
 27  28  34  35  38  39  40  41  42  43  44  45  46  47  48 0
 3-21G
 ****


