%nproc=1
%NoSave
%Mem=1900MB
#P OB98/GEN NMR

erre ene a

0 1
  C      182.395    -139.962     -62.240
  O      182.574    -138.954     -61.273
  H      182.142    -140.894     -61.726
  H      183.318    -140.122     -62.803
  H      181.579    -139.706     -62.920
  P      182.998    -137.478     -61.746
  C      181.192    -136.496     -63.282
  O      181.612    -136.680     -61.936
  C      180.182    -135.353     -63.391
  O      180.002    -134.995     -64.788
  C      178.796    -135.696     -62.821
  O      178.340    -134.631     -61.985
  C      177.916    -135.789     -64.056
  O      176.538    -135.554     -63.778
  C      178.595    -134.766     -64.973
  N      178.182    -134.916     -66.361
  C      178.237    -133.763     -67.150
  O      178.623    -132.698     -66.666
  N      177.804    -133.828     -68.449
  C      177.313    -134.937     -68.907
  N      176.873    -134.926     -70.194
  C      177.211    -136.171     -68.101
  C      177.664    -136.092     -66.850
  O      183.915    -137.440     -62.920
  O      183.619    -136.793     -60.440
  H      176.391    -134.584     -63.728
  H      184.207    -136.052     -60.717
  H      176.789    -137.068     -68.529
  H      177.628    -136.946     -66.183
  H      178.371    -133.740     -64.650
  H      178.005    -136.794     -64.490
  H      178.785    -136.625     -62.251
  H      180.604    -134.468     -62.899
  H      176.956    -134.057     -70.708
  H      180.751    -137.433     -63.642
  H      176.451    -135.720     -70.651
  H      182.070    -136.254     -63.888
  P      178.798    -134.689     -60.447
  C      180.823    -133.071     -60.588
  O      179.511    -133.296     -60.092
  O      179.998    -135.747     -60.461
  O      177.707    -135.105     -59.518
  H      179.720    -136.568     -60.011
  H      181.163    -132.107     -60.272
  H      180.812    -133.112     -61.657
  H      181.482    -133.824     -60.209

 6  7  8  9  10  11  12  13  14  15  16  26  30  31  32  33  35 0
 6-311+G(2d,p)
 ****
 37  38 0
 6-311+G(2d,p)
 ****
 1  2  3  4  5  17  18  19  20  21  22  23  24  25 0
 3-21G
 ****
 27  28  29  34  36  39  40  41  42  43  44  45  46 0
 3-21G
 ****


