%nproc=1
%NoSave
%Mem=1900MB
#P OB98/GEN NMR

erre ene a

0 1
  C      -23.309     -30.971     -14.912
  O      -24.145     -31.579     -13.954
  P      -24.780     -30.805     -12.713
  C      -26.749     -29.105     -12.463
  O      -25.693     -29.611     -13.269
  C      -26.745     -27.569     -12.450
  O      -25.643     -27.119     -11.622
  C      -26.513     -26.993     -13.857
  O      -27.324     -25.868     -14.165
  C      -25.003     -26.797     -13.898
  O      -24.576     -25.878     -14.891
  C      -24.702     -26.409     -12.454
  N      -19.742     -25.444     -12.983
  C      -20.822     -24.738     -13.473
  N      -20.538     -23.761     -14.362
  N      -22.061     -24.994     -13.145
  C      -22.196     -26.071     -12.337
  C      -21.202     -26.846     -11.788
  C      -19.836     -26.531     -12.131
  O      -18.854     -27.201     -11.810
  N      -21.712     -27.896     -11.070
  C      -23.017     -27.778     -11.212
  N      -23.358     -26.703     -12.001
  O      -23.868     -30.518     -11.566
  O      -25.888     -31.864     -12.203
  H      -25.040     -25.036     -14.732
  H      -25.939     -31.779     -11.230
  H      -18.812     -25.249     -13.336
  H      -23.755     -28.452     -10.794
  H      -24.848     -25.340     -12.289
  H      -24.552     -27.765     -14.145
  H      -19.610     -23.638     -14.742
  H      -26.796     -27.725     -14.621
  H      -21.311     -23.403     -14.916
  H      -27.674     -27.210     -11.996
  H      -26.577     -29.491     -11.452
  H      -27.713     -29.486     -12.808
  P      -27.843     -25.367     -15.589
  C      -29.083     -26.374     -17.594
  O      -28.310     -26.640     -16.439
  O      -26.530     -24.885     -16.363
  O      -28.844     -24.260     -15.533
  H      -26.730     -24.078     -16.875
  H      -29.560     -27.304     -17.918
  H      -28.433     -26.011     -18.395
  H      -29.858     -25.631     -17.382
  H      -23.014     -31.697     -15.640
  H      -22.439     -30.578     -14.428
  H      -23.839     -30.176     -15.395

 3  4  5  6  7  8  9  10  11  12  23  26  30  31 0
 6-311+G(2d,p)
 ****
 33  35  36  37  38 0
 6-311+G(2d,p)
 ****
 1  2  13  14  15  16  17  18  19  20  21  22  24  25 0
 3-21G
 ****
 27  28  29  32  34  39  40  41  42  43  44  45  46  47  48  49 0
 3-21G
 ****


