%nproc=1
%NoSave
%Mem=1900MB
#P OB98/GEN NMR

erre ene a

0 1
  C      999.193    -774.257    -554.216
  O     1000.002    -773.220    -554.747
  H      998.152    -773.929    -554.245
  H      999.468    -774.463    -553.181
  H      999.297    -775.162    -554.817
  P     1001.586    -773.485    -554.758
  C     1002.927    -774.404    -556.760
  O     1001.992    -773.428    -556.310
  C     1003.126    -774.294    -558.272
  O     1001.841    -774.438    -558.935
  C     1003.729    -772.944    -558.702
  O     1004.640    -773.159    -559.777
  C     1002.518    -772.165    -559.216
  O     1002.879    -771.169    -560.154
  C     1001.649    -773.294    -559.779
  N      997.193    -774.090    -562.158
  C      998.407    -774.694    -562.263
  N      999.528    -774.437    -561.570
  C      999.327    -773.457    -560.679
  C      998.159    -772.739    -560.451
  C      997.047    -773.091    -561.267
  N      995.825    -772.462    -561.184
  N      998.353    -771.791    -559.468
  C      999.606    -771.931    -559.101
  N     1000.243    -772.925    -559.796
  O     1002.048    -774.696    -554.017
  O     1002.155    -772.090    -554.202
  H     1003.409    -770.479    -559.698
  H     1001.695    -771.340    -554.616
  H      998.470    -775.499    -562.995
  H     1000.095    -771.345    -558.338
  H     1001.919    -773.553    -560.804
  H     1002.011    -771.679    -558.378
  H     1004.224    -772.429    -557.877
  H     1003.756    -775.125    -558.611
  H     1002.557    -775.412    -556.525
  H      995.078    -772.779    -561.781
  H      995.679    -771.729    -560.491
  H     1003.866    -774.243    -556.230
  P     1006.219    -773.073    -559.468
  C     1006.537    -774.698    -557.486
  O     1006.685    -774.499    -558.890
  O     1006.673    -771.897    -558.688
  O     1006.850    -773.085    -560.932
  H     1007.625    -772.488    -560.945
  H     1006.879    -775.678    -557.227
  H     1005.506    -774.598    -557.218
  H     1007.115    -773.967    -556.959

 6  7  8  9  10  11  12  13  14  15  25  28  32  33  34  35 0
 6-311+G(2d,p)
 ****
 36  39  40 0
 6-311+G(2d,p)
 ****
 1  2  3  4  5  16  17  18  19  20  21  22  23  24 0
 3-21G
 ****
 26  27  29  30  31  37  38  41  42  43  44  45  46  47 0
 3-21G
 ****
 48 0
 3-21G
 ****


