%nproc=1
%NoSave
%Mem=1900MB
#P OB98/GEN NMR

erre ene a

0 1
  C      849.652    -693.129     306.184
  O      848.836    -693.016     305.023
  P      847.241    -693.119     305.190
  C      847.086    -690.908     303.742
  O      846.557    -691.745     304.758
  C      846.115    -689.754     303.480
  O      844.870    -690.252     302.907
  C      845.735    -688.971     304.736
  O      846.662    -687.948     305.016
  C      844.352    -688.458     304.395
  O      844.442    -687.322     303.518
  C      843.760    -689.674     303.642
  N      843.105    -690.749     304.449
  C      842.078    -690.435     305.325
  O      841.636    -689.292     305.495
  N      841.514    -691.475     306.004
  C      841.766    -692.795     305.799
  O      841.202    -693.704     306.401
  C      842.752    -693.101     304.757
  C      843.384    -692.078     304.154
  O      847.030    -693.151     306.786
  O      846.622    -694.296     304.521
  H      845.110    -686.718     303.887
  H      846.650    -694.007     307.061
  H      840.813    -691.262     306.698
  H      842.959    -694.137     304.517
  H      844.126    -692.284     303.384
  H      843.020    -689.353     302.902
  H      843.823    -688.112     305.282
  H      845.643    -689.665     305.595
  H      846.561    -689.079     302.739
  H      847.254    -691.473     302.821
  H      848.059    -690.513     304.050
  P      847.950    -688.242     305.928
  C      849.810    -687.766     304.232
  O      849.090    -688.765     304.914
  O      847.712    -689.126     307.128
  O      848.490    -686.795     306.325
  H      848.150    -686.539     307.217
  H      850.653    -688.230     303.698
  H      850.208    -687.027     304.928
  H      849.151    -687.283     303.491
  H      850.682    -693.040     305.906
  H      849.488    -694.081     306.644
  H      849.400    -692.351     306.874

 3  4  5  6  7  8  9  10  11  12  13  23  28  29  30  31  32 0
 6-311+G(2d,p)
 ****
 33  34 0
 6-311+G(2d,p)
 ****
 1  2  14  15  16  17  18  19  20  21  22  24  25  26  27 0
 3-21G
 ****
 35  36  37  38  39  40  41  42  43  44  45 0
 3-21G
 ****


