%nproc=1
%NoSave
%Mem=1900MB
#P OB98/GEN NMR

erre ene a

0 1
  C      -66.083      99.983    -150.262
  O      -66.517     101.304    -150.558
  P      -67.847     101.565    -151.416
  C      -68.713     103.278    -149.701
  O      -68.951     102.029    -150.352
  C      -68.581     103.060    -148.194
  O      -67.405     102.245    -147.949
  C      -68.366     104.328    -147.360
  O      -69.559     105.019    -147.016
  C      -67.746     103.731    -146.099
  O      -68.779     103.152    -145.273
  C      -66.849     102.633    -146.668
  N      -62.120     102.551    -144.699
  C      -63.289     101.983    -144.292
  N      -64.508     102.066    -144.867
  C      -64.450     102.792    -145.992
  C      -63.340     103.428    -146.532
  C      -62.129     103.287    -145.833
  N      -60.944     103.843    -146.264
  N      -63.686     104.105    -147.697
  C      -64.965     103.862    -147.854
  N      -65.473     103.073    -146.854
  O      -68.239     100.435    -152.311
  O      -67.537     102.915    -152.220
  H      -68.948     102.256    -145.626
  H      -68.166     103.015    -152.963
  H      -63.227     101.388    -143.380
  H      -65.567     104.235    -148.669
  H      -66.830     101.735    -146.036
  H      -67.230     104.477    -145.485
  H      -67.639     105.001    -147.832
  H      -69.459     102.507    -147.843
  H      -69.567     103.933    -149.901
  H      -60.105     103.578    -145.776
  H      -60.917     104.248    -147.189
  H      -67.812     103.748    -150.115
  P      -70.267     105.875    -148.172
  C      -72.540     105.093    -147.125
  O      -71.759     105.299    -148.290
  O      -69.501     105.946    -149.457
  O      -70.474     107.302    -147.473
  H      -71.110     107.317    -146.743
  H      -73.563     104.860    -147.430
  H      -72.557     105.997    -146.497
  H      -72.134     104.254    -146.553
  H      -65.183     100.024    -149.684
  H      -65.897      99.456    -151.174
  H      -66.842      99.475    -149.704

 3  4  5  6  7  8  9  10  11  12  22  25  29  30  31  32 0
 6-311+G(2d,p)
 ****
 33  36  37 0
 6-311+G(2d,p)
 ****
 1  2  13  14  15  16  17  18  19  20  21  23  24  26 0
 3-21G
 ****
 27  28  34  35  38  39  40  41  42  43  44  45  46  47  48 0
 3-21G
 ****


