%nproc=1
%NoSave
%Mem=1900MB
#P OB98/GEN NMR

erre ene a

0 1
  C       20.118     -43.940     -74.767
  O       18.759     -43.683     -75.077
  P       17.858     -42.980     -73.950
  C       16.338     -43.825     -72.015
  O       17.211     -44.165     -73.083
  C       15.181     -44.817     -71.942
  O       14.259     -44.609     -73.032
  C       15.604     -46.277     -72.049
  O       16.078     -46.794     -70.817
  C       14.288     -46.934     -72.430
  O       13.471     -47.117     -71.257
  C       13.662     -45.887     -73.360
  N       12.096     -48.653     -77.296
  C       11.512     -48.468     -76.059
  N       10.382     -49.165     -75.818
  N       11.989     -47.669     -75.142
  C       13.131     -47.042     -75.520
  C       13.802     -47.143     -76.718
  C       13.268     -48.040     -77.719
  O       13.768     -48.287     -78.811
  N       14.917     -46.347     -76.735
  C       14.923     -45.763     -75.553
  N       13.884     -46.185     -74.764
  O       16.612     -42.408     -74.776
  O       18.553     -41.915     -73.171
  H       12.755     -47.732     -71.510
  H       16.142     -41.735     -74.248
  H       11.691     -49.285     -77.968
  H       15.664     -45.047     -75.221
  H       12.583     -45.793     -73.202
  H       14.421     -47.922     -72.881
  H        9.997     -49.845     -76.458
  H       16.331     -46.422     -72.858
  H        9.966     -49.098     -74.897
  H       14.641     -44.641     -71.003
  H       15.947     -42.817     -72.176
  H       16.900     -43.829     -71.075
  P       17.236     -47.904     -70.897
  C       17.432     -50.212     -72.073
  O       16.606     -49.115     -71.734
  O       17.302     -48.463     -69.400
  O       18.554     -47.389     -71.370
  H       18.191     -48.817     -69.208
  H       16.796     -51.043     -72.395
  H       18.024     -50.538     -71.215
  H       18.095     -49.937     -72.897
  H       20.593     -44.408     -75.604
  H       20.174     -44.588     -73.918
  H       20.614     -43.018     -74.545

 3  4  5  6  7  8  9  10  11  12  23  26  30  31 0
 6-311+G(2d,p)
 ****
 33  35  36  37  38 0
 6-311+G(2d,p)
 ****
 1  2  13  14  15  16  17  18  19  20  21  22  24  25 0
 3-21G
 ****
 27  28  29  32  34  39  40  41  42  43  44  45  46  47  48  49 0
 3-21G
 ****


