%nproc=1
%NoSave
%Mem=1900MB
#P OB98/GEN NMR

erre ene a

0 1
  C     -101.854     200.452     -44.284
  O     -100.734     199.996     -43.551
  H     -101.520     200.761     -45.277
  H     -102.304     201.313     -43.784
  H     -102.598     199.656     -44.397
  P     -100.974     199.293     -42.131
  C     -101.024     200.368     -39.784
  O     -101.488     200.435     -41.125
  C     -101.703     201.450     -38.941
  O     -103.122     201.468     -39.208
  C     -101.566     201.246     -37.438
  O     -100.268     201.601     -36.994
  C     -102.686     202.138     -36.927
  O     -102.274     203.518     -36.913
  C     -103.780     201.902     -37.998
  N     -104.797     200.937     -37.578
  C     -105.719     201.379     -36.636
  O     -105.686     202.503     -36.139
  N     -106.685     200.468     -36.271
  C     -106.758     199.173     -36.687
  O     -107.607     198.380     -36.287
  C     -105.731     198.745     -37.652
  C     -104.814     199.636     -38.051
  O      -99.842     198.467     -41.611
  O     -102.288     198.404     -42.367
  H     -101.545     203.582     -36.264
  H     -102.035     197.473     -42.511
  H     -107.353     200.768     -35.583
  H     -105.756     197.721     -38.002
  H     -104.048     199.343     -38.762
  H     -104.287     202.847     -38.241
  H     -102.996     201.891     -35.913
  H     -101.800     200.205     -37.172
  H     -101.293     202.422     -39.245
  H      -99.937     200.533     -39.780
  H     -101.240     199.370     -39.383
  P      -99.913     201.609     -35.434
  C     -100.134     203.277     -33.501
  O     -100.617     202.900     -34.784
  O      -98.461     201.462     -35.111
  O     -100.761     200.390     -34.832
  H     -100.168     199.646     -34.629
  H     -100.665     204.141     -33.160
  H      -99.090     203.502     -33.565
  H     -100.284     202.472     -32.813

 6  7  8  9  10  11  12  13  14  15  16  26  31  32  33  34  35 0
 6-311+G(2d,p)
 ****
 36  37 0
 6-311+G(2d,p)
 ****
 1  2  3  4  5  17  18  19  20  21  22  23  24  25 0
 3-21G
 ****
 27  28  29  30  38  39  40  41  42  43  44  45 0
 3-21G
 ****


