%nproc=1
%NoSave
%Mem=1900MB
#P OB98/GEN NMR

erre ene a

0 1
  C     -741.255    -897.851    1384.957
  O     -740.594    -899.101    1385.124
  P     -740.573    -900.297    1384.076
  C     -741.334    -902.451    1385.432
  O     -740.290    -901.663    1384.856
  C     -741.140    -903.942    1385.160
  O     -740.714    -904.138    1383.789
  C     -740.043    -904.570    1386.047
  O     -740.371    -905.845    1386.578
  C     -738.791    -904.490    1385.178
  O     -737.764    -905.363    1385.552
  C     -739.404    -904.711    1383.781
  N     -735.207    -905.148    1380.865
  C     -735.586    -905.876    1381.981
  N     -734.714    -906.844    1382.381
  N     -736.694    -905.674    1382.651
  C     -737.400    -904.618    1382.179
  C     -737.140    -903.831    1381.102
  C     -735.948    -904.103    1380.334
  O     -735.557    -903.483    1379.338
  N     -738.121    -902.870    1380.927
  C     -738.963    -903.093    1381.903
  N     -738.571    -904.165    1382.705
  O     -739.803    -900.064    1382.834
  O     -742.139    -900.469    1383.662
  H     -737.104    -905.394    1384.799
  H     -742.135    -900.773    1382.729
  H     -734.372    -905.352    1380.369
  H     -739.871    -902.527    1382.091
  H     -739.489    -905.774    1383.530
  H     -738.393    -903.450    1385.247
  H     -733.791    -906.974    1381.997
  H     -739.872    -903.963    1386.966
  H     -734.894    -907.208    1383.335
  H     -742.115    -904.456    1385.321
  H     -742.262    -902.098    1384.953
  H     -741.395    -902.239    1386.515
  P     -740.715    -906.270    1388.092
  C     -739.156    -908.299    1388.268
  O     -740.546    -907.818    1388.274
  O     -742.327    -906.059    1388.224
  O     -740.007    -905.418    1389.141
  H     -742.507    -905.368    1388.885
  H     -739.186    -909.404    1388.129
  H     -738.721    -908.070    1389.245
  H     -738.586    -907.840    1387.467
  H     -741.096    -897.245    1385.824
  H     -742.304    -898.017    1384.826
  H     -740.862    -897.352    1384.096

 3  4  5  6  7  8  9  10  11  12  23  26  30  31 0
 6-311+G(2d,p)
 ****
 33  35  36  37  38 0
 6-311+G(2d,p)
 ****
 1  2  13  14  15  16  17  18  19  20  21  22  24  25 0
 3-21G
 ****
 27  28  29  32  34  39  40  41  42  43  44  45  46  47  48  49 0
 3-21G
 ****


