%nproc=1
%NoSave
%Mem=1900MB
#P OB98/GEN NMR

erre ene a

0 1
  C      338.174    -131.783     215.209
  O      338.410    -130.395     214.924
  P      337.661    -129.712     213.674
  C      338.249    -127.499     214.939
  O      337.939    -128.135     213.706
  C      338.755    -126.076     214.687
  O      340.083    -126.103     214.113
  C      337.914    -125.276     213.700
  O      336.715    -124.802     214.288
  C      338.879    -124.165     213.312
  O      338.866    -123.108     214.288
  C      340.237    -124.901     213.328
  N      340.727    -125.201     211.986
  C      341.109    -124.110     211.210
  O      340.994    -122.944     211.583
  N      341.600    -124.406     209.968
  C      341.679    -125.650     209.411
  O      342.111    -125.848     208.282
  C      341.185    -126.754     210.247
  C      340.734    -126.481     211.474
  O      336.124    -129.788     214.131
  O      337.857    -130.387     212.357
  H      338.978    -123.533     215.163
  H      335.553    -129.828     213.339
  H      341.911    -123.634     209.399
  H      341.207    -127.754     209.834
  H      340.366    -127.285     212.103
  H      340.987    -124.297     213.848
  H      338.632    -123.712     212.347
  H      337.697    -125.887     212.814
  H      338.811    -125.558     215.654
  H      339.029    -128.068     215.451
  H      337.353    -127.483     215.568
  P      335.350    -125.501     213.807
  C      334.617    -125.419     216.317
  O      334.286    -125.187     214.965
  O      335.719    -127.048     213.989
  O      334.951    -125.115     212.422
  H      336.318    -127.196     214.743
  H      335.678    -125.242     216.507
  H      334.367    -126.452     216.577
  H      334.028    -124.744     216.943
  H      338.746    -132.073     216.065
  H      338.467    -132.375     214.367
  H      337.133    -131.935     215.407

 3  4  5  6  7  8  9  10  11  12  13  23  28  29  30  31  32 0
 6-311+G(2d,p)
 ****
 33  34 0
 6-311+G(2d,p)
 ****
 1  2  14  15  16  17  18  19  20  21  22  24  25  26 0
 3-21G
 ****
 27  35  36  37  38  39  40  41  42  43  44  45 0
 3-21G
 ****


