%nproc=1
%NoSave
%Mem=1900MB
#P OB98/GEN NMR

erre ene a

0 1
  C     -192.038     124.449      10.870
  O     -191.257     124.763      12.022
  P     -190.051     125.806      12.044
  C     -188.524     124.154      10.699
  O     -188.688     124.997      11.828
  C     -187.050     123.939      10.313
  O     -186.461     125.210       9.934
  C     -186.249     123.432      11.513
  O     -186.244     122.054      11.833
  C     -184.863     124.032      11.332
  O     -183.966     123.147      10.659
  C     -185.126     125.275      10.478
  N     -181.851     128.711      12.384
  C     -181.588     127.517      11.744
  N     -180.290     127.162      11.639
  N     -182.515     126.732      11.266
  C     -183.773     127.162      11.516
  C     -184.160     128.316      12.156
  C     -183.123     129.208      12.630
  O     -183.301     130.284      13.193
  N     -185.526     128.408      12.245
  C     -185.963     127.301      11.682
  N     -184.935     126.512      11.216
  O     -190.078     126.800      13.155
  O     -190.235     126.616      10.661
  H     -183.145     123.636      10.474
  H     -189.924     127.529      10.829
  H     -181.096     129.290      12.710
  H     -187.005     127.025      11.580
  H     -184.444     125.318       9.621
  H     -184.408     124.252      12.306
  H     -179.538     127.661      12.088
  H     -186.664     123.922      12.404
  H     -180.104     126.194      11.368
  H     -186.967     123.296       9.434
  H     -189.071     124.618       9.874
  H     -188.999     123.189      10.882
  P     -187.225     121.315      12.860
  C     -185.267     120.874      14.452
  O     -186.351     120.305      13.738
  O     -188.080     120.328      11.936
  O     -188.120     122.221      13.641
  H     -188.874     120.021      12.410
  H     -184.579     120.078      14.748
  H     -185.642     121.374      15.349
  H     -184.728     121.596      13.830
  H     -192.779     123.722      11.129
  H     -191.403     124.054      10.105
  H     -192.518     125.336      10.512

 3  4  5  6  7  8  9  10  11  12  23  26  30  31 0
 6-311+G(2d,p)
 ****
 33  35  36  37  38 0
 6-311+G(2d,p)
 ****
 1  2  13  14  15  16  17  18  19  20  21  22  24  25 0
 3-21G
 ****
 27  28  29  32  34  39  40  41  42  43  44  45  46  47  48  49 0
 3-21G
 ****


