%nproc=1
%NoSave
%Mem=1900MB
#P OB98/GEN NMR

erre ene a

0 1
  C     -339.377    -255.281     116.731
  O     -339.009    -255.686     118.045
  P     -340.072    -255.509     119.232
  C     -340.189    -257.351     121.128
  O     -339.545    -256.240     120.554
  C     -339.484    -257.722     122.450
  O     -338.338    -258.571     122.183
  C     -338.968    -256.506     123.218
  O     -339.958    -255.949     124.061
  C     -337.788    -257.092     123.977
  O     -338.247    -257.835     125.120
  C     -337.191    -258.049     122.916
  N     -336.234    -257.497     121.933
  C     -334.863    -257.525     122.215
  O     -334.377    -257.992     123.240
  N     -334.040    -257.008     121.242
  C     -334.408    -256.628     119.983
  O     -333.627    -256.229     119.134
  C     -335.847    -256.747     119.690
  C     -336.673    -257.156     120.662
  O     -341.316    -256.396     118.765
  O     -340.468    -254.081     119.494
  H     -337.558    -258.500     125.328
  H     -342.099    -255.833     118.613
  H     -333.053    -256.964     121.457
  H     -336.176    -256.507     118.686
  H     -337.742    -257.256     120.450
  H     -336.700    -258.898     123.395
  H     -337.141    -256.307     124.364
  H     -338.580    -255.752     122.520
  H     -340.194    -258.285     123.074
  H     -340.176    -258.207     120.449
  H     -341.246    -257.112     121.315
  P     -340.767    -254.644     123.586
  C     -343.156    -253.777     123.939
  O     -342.190    -254.720     124.343
  O     -340.835    -254.405     122.116
  O     -340.034    -253.439     124.358
  H     -339.363    -253.010     123.781
  H     -344.119    -254.039     124.406
  H     -343.281    -253.786     122.847
  H     -342.862    -252.776     124.265
  H     -338.563    -255.464     116.060
  H     -339.611    -254.237     116.732
  H     -340.234    -255.838     116.413

 3  4  5  6  7  8  9  10  11  12  13  23  28  29  30  31  32 0
 6-311+G(2d,p)
 ****
 33  34 0
 6-311+G(2d,p)
 ****
 1  2  14  15  16  17  18  19  20  21  22  24  25  26  27 0
 3-21G
 ****
 35  36  37  38  39  40  41  42  43  44  45 0
 3-21G
 ****


