%nproc=1
%NoSave
%Mem=1900MB
#P OB98/GEN NMR

erre ene a

0 1
  C      191.194     -45.046      13.048
  O      189.800     -45.277      12.982
  H      191.692     -45.925      13.464
  H      191.569     -44.876      12.035
  H      191.414     -44.167      13.660
  P      188.986     -45.254      14.364
  C      187.472     -47.284      13.803
  O      187.542     -45.889      14.051
  C      186.014     -47.739      13.725
  O      185.356     -47.406      14.980
  C      185.212     -47.091      12.587
  O      184.331     -48.073      12.033
  C      184.383     -46.038      13.302
  O      183.189     -45.706      12.605
  C      184.142     -46.712      14.649
  N      180.497     -43.514      16.179
  C      180.480     -44.556      15.323
  N      181.490     -45.394      15.012
  C      182.583     -45.114      15.737
  C      182.748     -44.089      16.656
  C      181.640     -43.249      16.857
  N      181.667     -42.146      17.677
  N      184.039     -44.094      17.153
  C      184.644     -45.081      16.531
  N      183.806     -45.728      15.664
  O      188.677     -43.692      14.551
  O      189.701     -45.827      15.541
  H      182.755     -44.958      13.062
  H      189.418     -43.266      15.019
  H      179.535     -44.736      14.811
  H      185.686     -45.354      16.643
  H      183.323     -47.442      14.614
  H      184.978     -45.122      13.420
  H      185.834     -46.663      11.794
  H      185.996     -48.832      13.634
  H      187.965     -47.818      14.624
  H      180.859     -41.541      17.676
  H      182.540     -41.873      18.098
  H      187.995     -47.516      12.870
  P      184.842     -48.881      10.744
  C      182.474     -49.133       9.684
  O      183.635     -49.782      10.197
  O      185.856     -49.951      11.359
  O      185.505     -48.020       9.716
  H      186.580     -50.135      10.731
  H      181.767     -49.869       9.362
  H      182.748     -48.515       8.855
  H      182.035     -48.528      10.450

 6  7  8  9  10  11  12  13  14  15  25  28  32  33  34  35 0
 6-311+G(2d,p)
 ****
 36  39  40 0
 6-311+G(2d,p)
 ****
 1  2  3  4  5  16  17  18  19  20  21  22  23  24 0
 3-21G
 ****
 26  27  29  30  31  37  38  41  42  43  44  45  46  47 0
 3-21G
 ****
 48 0
 3-21G
 ****


