%nproc=1
%NoSave
%Mem=1900MB
#P OB98/GEN NMR

erre ene a

0 1
  C      441.840    -263.500    -496.111
  O      442.782    -263.055    -495.140
  P      442.451    -261.734    -494.302
  C      442.568    -262.889    -491.924
  O      441.856    -262.129    -492.875
  C      441.718    -263.039    -490.654
  O      440.370    -263.432    -490.995
  C      442.255    -264.089    -489.684
  O      443.233    -263.552    -488.811
  C      440.994    -264.541    -488.979
  O      440.605    -263.579    -487.984
  C      439.979    -264.553    -490.149
  N      439.899    -265.770    -490.985
  C      439.734    -267.013    -490.379
  O      439.659    -267.188    -489.164
  N      439.646    -268.086    -491.224
  C      439.533    -268.038    -492.584
  O      439.398    -269.029    -493.289
  C      439.559    -266.690    -493.163
  C      439.748    -265.642    -492.357
  O      441.206    -261.097    -495.072
  O      443.592    -260.770    -494.190
  H      440.465    -262.733    -488.439
  H      441.448    -260.233    -495.457
  H      439.600    -269.002    -490.806
  H      439.425    -266.599    -494.234
  H      439.770    -264.640    -492.780
  H      438.965    -264.351    -489.783
  H      441.153    -265.479    -488.450
  H      442.658    -264.942    -490.238
  H      441.668    -262.064    -490.156
  H      443.520    -262.418    -491.683
  H      442.799    -263.878    -492.342
  P      444.681    -263.167    -489.372
  C      444.126    -260.663    -489.320
  O      444.492    -261.765    -490.129
  O      445.387    -264.227    -490.147
  O      445.492    -262.740    -488.057
  H      446.023    -263.499    -487.716
  H      444.185    -259.750    -489.919
  H      444.804    -260.573    -488.466
  H      443.098    -260.788    -488.966
  H      442.206    -264.389    -496.581
  H      441.701    -262.737    -496.849
  H      440.906    -263.708    -495.633

 3  4  5  6  7  8  9  10  11  12  13  23  28  29  30  31  32 0
 6-311+G(2d,p)
 ****
 33  34 0
 6-311+G(2d,p)
 ****
 1  2  14  15  16  17  18  19  20  21  22  24  25  26  27 0
 3-21G
 ****
 35  36  37  38  39  40  41  42  43  44  45 0
 3-21G
 ****


