%nproc=1
%NoSave
%Mem=1900MB
#P OB98/GEN NMR

erre ene a

0 1
  C     -184.689     624.490     -61.106
  O     -184.739     623.113     -60.765
  P     -184.785     622.734     -59.208
  C     -183.378     621.242     -57.637
  O     -183.511     621.790     -58.935
  C     -182.549     619.962     -57.665
  O     -183.385     618.876     -58.186
  C     -181.287     620.034     -58.546
  O     -180.192     619.421     -57.860
  C     -181.640     619.159     -59.745
  O     -180.475     618.632     -60.375
  C     -182.537     618.115     -59.074
  N     -183.188     613.487     -61.002
  C     -182.448     613.890     -59.905
  N     -181.743     612.928     -59.266
  N     -182.402     615.126     -59.481
  C     -183.186     615.974     -60.188
  C     -183.958     615.693     -61.284
  C     -183.965     614.334     -61.791
  O     -184.519     613.931     -62.807
  N     -184.637     616.812     -61.726
  C     -184.251     617.770     -60.902
  N     -183.337     617.324     -59.980
  O     -186.024     621.720     -59.128
  O     -184.957     623.879     -58.277
  H     -180.082     618.002     -59.741
  H     -186.674     622.048     -58.471
  H     -183.167     612.522     -61.309
  H     -184.581     618.808     -60.951
  H     -181.936     617.428     -58.466
  H     -182.197     619.763     -60.479
  H     -181.752     611.957     -59.524
  H     -181.014     621.064     -58.846
  H     -181.213     613.201     -58.450
  H     -182.290     619.681     -56.638
  H     -184.379     621.016     -57.233
  H     -182.898     621.975     -56.974
  P     -178.761     619.573     -58.557
  C     -177.260     617.867     -59.838
  O     -178.562     618.267     -59.471
  O     -177.731     619.341     -57.339
  O     -178.547     620.892     -59.232
  H     -176.874     619.779     -57.526
  H     -176.483     618.419     -59.292
  H     -177.126     618.023     -60.900
  H     -177.136     616.798     -59.615
  H     -184.662     624.593     -62.171
  H     -183.810     624.931     -60.683
  H     -185.556     624.984     -60.721

 3  4  5  6  7  8  9  10  11  12  23  26  30  31  33  0
 6-311+G(2d,p)
 ****
 35  36  37  38 0
 6-311+G(2d,p)
 ****
 1  2  13  14  15  16  17  18  19  20  21  22  24  25  27  28  29 0
 3-21G
 ****
 32  34  39  40  41  42  43  44  45  46  47  48  49 0
 3-21G
 ****


