%nproc=1
%NoSave
%Mem=1900MB
#P OB98/GEN NMR

erre ene a

0 1
  C        0.922    1203.794    -421.050
  O        1.146    1202.444    -421.422
  H        1.195    1204.434    -421.887
  H        1.542    1204.050    -420.187
  H       -0.138    1203.963    -420.811
  P        0.681    1201.277    -420.425
  C        2.838    1199.914    -420.093
  O        1.574    1199.989    -420.744
  C        3.329    1198.464    -420.099
  O        2.443    1197.625    -419.328
  C        3.385    1197.835    -421.492
  O        4.510    1198.298    -422.217
  C        3.414    1196.351    -421.144
  O        4.749    1195.940    -420.782
  C        2.472    1196.299    -419.915
  N        1.125    1195.853    -420.268
  C        0.935    1194.471    -420.379
  O        1.845    1193.659    -420.217
  N       -0.336    1194.069    -420.690
  C       -1.386    1194.880    -421.016
  O       -2.474    1194.464    -421.382
  C       -1.117    1196.325    -420.922
  C        0.102    1196.730    -420.545
  O       -0.789    1201.028    -420.374
  O        1.238    1201.762    -418.996
  H        4.678    1195.010    -420.484
  H        0.502    1202.099    -418.454
  H       -0.482    1193.060    -420.776
  H       -1.938    1196.999    -421.158
  H        0.305    1197.791    -420.479
  H        2.874    1195.629    -419.150
  H        3.100    1195.717    -421.970
  H        2.456    1198.050    -422.036
  H        4.323    1198.418    -419.618
  H        2.717    1200.247    -419.056
  H        3.553    1200.568    -420.607
  P        4.343    1199.483    -423.276
  C        5.409    1198.166    -425.213
  O        5.487    1199.325    -424.379
  O        4.206    1200.863    -422.683
  O        3.010    1199.096    -424.082
  H        2.332    1199.801    -423.971
  H        6.223    1198.171    -425.907
  H        4.483    1198.174    -425.749
  H        5.462    1197.286    -424.607

 6  7  8  9  10  11  12  13  14  15  16  26  31  32  33  34  35 0
 6-311+G(2d,p)
 ****
 36  37 0
 6-311+G(2d,p)
 ****
 1  2  3  4  5  17  18  19  20  21  22  23  24  25 0
 3-21G
 ****
 27  28  29  30  38  39  40  41  42  43  44  45 0
 3-21G
 ****


