%nproc=1
%NoSave
%Mem=1900MB
#P OB98/GEN NMR

erre ene a

0 1
  C      827.488     302.073     496.449
  O      828.563     302.189     495.544
  P      828.440     301.585     494.057
  C      830.061     299.721     494.800
  O      828.811     300.027     494.179
  C      829.937     298.442     495.622
  O      828.810     298.526     496.535
  C      829.668     297.193     494.799
  O      830.690     296.758     493.917
  C      829.219     296.211     495.878
  O      830.341     295.643     496.565
  C      828.421     297.143     496.814
  N      826.971     296.956     496.685
  C      826.417     295.938     497.441
  O      827.073     295.221     498.198
  N      825.068     295.746     497.288
  C      824.250     296.413     496.430
  O      823.060     296.159     496.301
  C      824.895     297.473     495.638
  C      826.205     297.690     495.795
  O      829.196     302.334     493.007
  O      826.859     301.536     493.809
  H      829.997     295.302     497.414
  H      826.363     300.987     494.446
  H      824.653     294.993     497.816
  H      824.272     298.038     494.948
  H      826.715     298.470     495.216
  H      828.694     296.948     497.862
  H      828.641     295.390     495.449
  H      828.798     297.391     494.158
  H      830.845     298.339     496.233
  H      830.336     300.553     495.464
  H      830.843     299.631     494.039
  P      830.517     296.709     492.327
  C      831.164     294.206     492.081
  O      830.182     295.196     491.908
  O      831.542     297.434     491.516
  O      829.095     297.428     492.128
  H      829.094     297.899     491.273
  H      830.772     293.251     491.715
  H      831.404     294.093     493.149
  H      832.070     294.471     491.533
  H      827.754     302.530     497.379
  H      827.268     301.038     496.610
  H      826.627     302.562     496.044

 3  4  5  6  7  8  9  10  11  12  13  23  28  29  30  31  32 0
 6-311+G(2d,p)
 ****
 33  34 0
 6-311+G(2d,p)
 ****
 1  2  14  15  16  17  18  19  20  21  22  24  25  26  27 0
 3-21G
 ****
 35  36  37  38  39  40  41  42  43  44  45 0
 3-21G
 ****


