%nproc=1
%NoSave
%Mem=1900MB
#P OB98/GEN NMR

erre ene a

0 1
  C     -741.147     341.309    -586.390
  O     -741.203     340.814    -585.068
  H     -740.789     342.341    -586.364
  H     -742.145     341.294    -586.836
  H     -740.460     340.707    -586.996
  P     -741.713     339.306    -584.881
  C     -739.308     338.370    -585.096
  O     -740.633     338.368    -585.611
  C     -738.394     337.475    -585.949
  O     -738.986     336.139    -586.034
  C     -738.201     337.987    -587.386
  O     -736.849     337.721    -587.783
  C     -739.131     337.104    -588.192
  O     -738.750     337.028    -589.560
  C     -739.016     335.790    -587.427
  N     -740.981     332.819    -590.984
  C     -739.815     333.561    -590.984
  N     -739.053     333.525    -592.101
  N     -739.436     334.291    -589.977
  C     -740.277     334.226    -588.914
  C     -741.458     333.545    -588.796
  C     -741.883     332.751    -589.933
  O     -742.914     332.087    -590.008
  N     -742.037     333.751    -587.569
  C     -741.212     334.576    -586.950
  N     -740.122     334.892    -587.722
  O     -742.982     339.217    -585.854
  O     -742.048     338.907    -583.477
  H     -738.877     337.916    -589.960
  H     -743.643     338.577    -585.511
  H     -741.235     332.279    -591.798
  H     -741.344     334.977    -585.943
  H     -738.097     335.244    -587.663
  H     -740.159     337.496    -588.149
  H     -739.268     332.950    -592.900
  H     -738.417     339.047    -587.502
  H     -738.188     334.051    -592.114
  H     -737.438     337.353    -585.437
  H     -739.328     337.993    -584.064
  H     -738.912     339.391    -585.093
  P     -735.763     338.883    -587.552
  C     -735.070     337.599    -585.400
  O     -735.321     338.862    -586.004
  O     -736.642     340.214    -587.665
  O     -734.643     338.875    -588.539
  H     -736.424     340.676    -588.498
  H     -734.788     337.742    -584.378
  H     -734.278     337.105    -585.923
  H     -735.955     337.000    -585.445

 6  7  8  9  10  11  12  13  14  15  26  29  33  34 0
 6-311+G(2d,p)
 ****
 36  38  39  40  41 0
 6-311+G(2d,p)
 ****
 1  2  3  4  5  16  17  18  19  20  21  22  23  24  25 0
 3-21G
 ****
 27  28  30  31  32  35  37  42  43  44  45  46  47 0
 3-21G
 ****
 48  49 0
 3-21G
 ****


