%nproc=1
%NoSave
%Mem=1900MB
#P OB98/GEN NMR

erre ene a

0 1
  C       38.752      27.368     154.514
  O       39.065      27.764     153.194
  H       38.429      28.246     155.079
  H       39.645      26.955     154.990
  H       37.947      26.626     154.522
  P       39.178      26.608     152.088
  C       41.772      26.519     152.159
  O       40.553      25.826     152.380
  C       42.962      25.619     152.487
  O       42.880      24.417     151.662
  C       44.333      26.269     152.225
  O       45.252      25.832     153.236
  C       44.752      25.650     150.904
  O       46.162      25.677     150.716
  C       44.171      24.246     151.051
  N       46.822      21.493     147.798
  C       47.106      21.869     149.096
  N       48.308      21.509     149.592
  N       46.279      22.546     149.847
  C       45.104      22.827     149.236
  C       44.704      22.518     147.961
  C       45.633      21.783     147.129
  O       45.449      21.438     145.966
  N       43.458      23.036     147.695
  C       43.118      23.672     148.804
  N       44.085      23.576     149.767
  O       39.490      27.433     150.751
  O       37.970      25.744     151.941
  H       46.499      26.535     151.043
  H       38.660      27.605     150.268
  H       47.501      20.987     147.255
  H       42.203      24.228     148.950
  H       44.779      23.607     151.705
  H       44.279      26.188     150.072
  H       48.986      20.959     149.084
  H       44.309      27.362     152.198
  H       48.514      21.743     150.556
  H       42.882      25.296     153.532
  H       41.804      27.404     152.803
  H       41.817      26.845     151.114
  P       45.641      26.864     154.399
  C       48.072      27.200     153.531
  O       46.830      27.802     153.874
  O       46.361      25.931     155.484
  O       44.471      27.583     154.986
  H       46.162      26.258     156.383
  H       48.755      27.955     153.201
  H       47.919      26.490     152.746
  H       48.476      26.703     154.388

 6  7  8  9  10  11  12  13  14  15  26  29  33  34 0
 6-311+G(2d,p)
 ****
 36  38  39  40  41 0
 6-311+G(2d,p)
 ****
 1  2  3  4  5  16  17  18  19  20  21  22  23  24  25 0
 3-21G
 ****
 27  28  30  31  32  35  37  42  43  44  45  46  47 0
 3-21G
 ****
 48  49 0
 3-21G
 ****


