%nproc=1
%NoSave
%Mem=1900MB
#P OB98/GEN NMR

erre ene a

0 1
  C     -289.703     -42.287     414.676
  O     -290.531     -41.246     414.182
  P     -292.114     -41.454     414.010
  C     -291.525     -41.775     411.518
  O     -292.287     -42.238     412.621
  C     -290.934     -42.965     410.755
  O     -290.252     -43.837     411.680
  C     -291.970     -43.837     410.052
  O     -292.435     -43.215     408.863
  C     -291.179     -45.126     409.861
  O     -290.295     -45.007     408.731
  C     -290.352     -45.190     411.165
  N     -290.930     -46.092     412.160
  C     -290.182     -47.233     412.467
  O     -289.098     -47.449     411.927
  N     -290.667     -48.099     413.414
  C     -291.811     -47.861     413.989
  N     -292.214     -48.718     414.969
  C     -292.653     -46.702     413.652
  C     -292.156     -45.864     412.740
  O     -292.928     -40.209     414.129
  O     -292.490     -42.572     415.092
  H     -290.861     -44.974     407.937
  H     -292.712     -42.208     415.983
  H     -293.603     -46.553     414.147
  H     -292.701     -44.975     412.456
  H     -289.325     -45.509     410.946
  H     -291.809     -46.007     409.702
  H     -292.824     -44.022     410.713
  H     -290.200     -42.586     410.032
  H     -291.525     -49.393     415.285
  H     -290.703     -41.152     411.892
  H     -292.914     -48.457     415.647
  H     -292.162     -41.167     410.865
  P     -293.996     -42.864     408.764
  C     -294.555     -44.901     407.254
  O     -294.744     -44.258     408.506
  O     -294.109     -42.086     407.374
  O     -294.518     -42.057     409.908
  H     -294.159     -41.122     407.525
  H     -294.923     -45.926     407.328
  H     -293.489     -44.928     406.990
  H     -295.116     -44.379     406.478
  H     -288.689     -41.948     414.714
  H     -289.772     -43.135     414.028
  H     -290.024     -42.562     415.659

 3  4  5  6  7  8  9  10  11  12  13  23  27  28  29  30  32 0
 6-311+G(2d,p)
 ****
 34  35 0
 6-311+G(2d,p)
 ****
 1  2  14  15  16  17  18  19  20  21  22  24  25  26 0
 3-21G
 ****
 31  33  36  37  38  39  40  41  42  43  44  45  46 0
 3-21G
 ****


