%nproc=1
%NoSave
%Mem=1900MB
#P OB98/GEN NMR

erre ene a

0 1
  C     -109.689     115.631     -51.845
  O     -110.253     114.352     -51.632
  H     -109.768     115.894     -52.902
  H     -110.249     116.365     -51.259
  H     -108.643     115.653     -51.531
  P     -109.415     113.086     -52.151
  C     -109.684     111.475     -50.133
  O     -110.077     111.793     -51.460
  C     -109.964     110.004     -49.833
  O     -111.401     109.828     -49.677
  C     -109.488     109.034     -50.926
  O     -108.969     107.858     -50.294
  C     -110.771     108.675     -51.655
  O     -110.701     107.410     -52.304
  C     -111.786     108.724     -50.516
  N     -116.026     106.228     -51.796
  C     -114.951     105.864     -51.066
  N     -113.882     106.613     -50.725
  C     -114.030     107.876     -51.162
  C     -115.071     108.397     -51.910
  C     -116.102     107.504     -52.247
  N     -117.168     107.845     -53.047
  N     -114.830     109.723     -52.212
  C     -113.653     109.989     -51.679
  N     -113.131     108.902     -51.035
  O     -108.024     113.254     -51.375
  O     -109.226     113.000     -53.627
  H     -110.405     106.739     -51.658
  H     -107.426     113.821     -51.896
  H     -114.940     104.834     -50.719
  H     -113.128     110.930     -51.753
  H     -111.784     107.811     -49.908
  H     -110.989     109.438     -52.410
  H     -108.732     109.458     -51.596
  H     -109.506     109.753     -48.869
  H     -110.254     112.094     -49.433
  H     -117.801     107.111     -53.323
  H     -117.182     108.756     -53.479
  H     -108.619     111.692     -50.009
  P     -107.463     107.919     -49.747
  C     -108.254     107.256     -47.357
  O     -107.360     107.006     -48.436
  O     -107.342     109.408     -49.173
  O     -106.429     107.647     -50.792
  H     -106.434     109.742     -49.287
  H     -108.057     106.566     -46.563
  H     -109.262     107.134     -47.694
  H     -108.115     108.256     -47.003

 6  7  8  9  10  11  12  13  14  15  25  28  32  33  34  35 0
 6-311+G(2d,p)
 ****
 36  39  40 0
 6-311+G(2d,p)
 ****
 1  2  3  4  5  16  17  18  19  20  21  22  23  24 0
 3-21G
 ****
 26  27  29  30  31  37  38  41  42  43  44  45  46  47 0
 3-21G
 ****
 48 0
 3-21G
 ****


