%nproc=1
%NoSave
%Mem=1900MB
#P OB98/GEN NMR

erre ene a

0 1
  C       73.160     183.614     187.493
  O       72.079     182.832     187.958
  H       72.781     184.594     187.192
  H       73.630     183.137     186.630
  H       73.896     183.749     188.291
  P       72.413     181.309     188.345
  C       73.250     181.772     190.771
  O       72.213     181.275     189.939
  C       72.758     181.880     192.210
  O       71.841     182.990     192.352
  C       71.992     180.659     192.714
  O       72.831     179.574     193.063
  C       71.309     181.262     193.927
  O       72.267     181.423     194.989
  C       70.862     182.627     193.365
  N       69.514     182.598     192.790
  C       68.481     183.108     193.588
  O       68.713     183.551     194.710
  N       67.194     183.070     193.103
  C       66.960     182.588     191.922
  N       65.668     182.576     191.500
  C       68.019     182.054     191.047
  C       69.255     182.090     191.537
  O       74.003     181.226     188.189
  O       71.661     180.263     187.594
  H       72.997     181.958     194.626
  H       74.332     180.365     188.547
  H       67.773     181.651     190.074
  H       70.087     181.715     190.948
  H       70.892     183.401     194.141
  H       70.501     180.646     194.321
  H       71.224     180.344     191.996
  H       73.626     182.093     192.846
  H       64.958     182.894     192.148
  H       73.546     182.759     190.399
  H       65.367     182.088     190.666
  H       74.114     181.102     190.734
  P       72.170     178.110     193.090
  C       72.936     177.150     190.794
  O       73.109     177.160     192.206
  O       70.864     178.285     192.187
  O       71.842     177.594     194.457
  H       70.134     177.725     192.516
  H       73.634     176.469     190.354
  H       73.104     178.133     190.407
  H       71.939     176.840     190.559

 6  7  8  9  10  11  12  13  14  15  16  26  30  31  32  33  35 0
 6-311+G(2d,p)
 ****
 37  38 0
 6-311+G(2d,p)
 ****
 1  2  3  4  5  17  18  19  20  21  22  23  24  25 0
 3-21G
 ****
 27  28  29  34  36  39  40  41  42  43  44  45  46 0
 3-21G
 ****


