%nproc=1
%NoSave
%Mem=1900MB
#P OB98/GEN NMR

erre ene a

0 1
  C      903.791     932.131     260.955
  O      904.838     932.397     261.886
  P      904.492     933.374     263.115
  C      905.198     931.512     264.836
  O      904.192     932.392     264.357
  C      904.990     931.222     266.323
  O      905.283     932.396     267.115
  C      903.557     930.843     266.667
  O      903.262     929.510     266.270
  C      903.572     931.059     268.186
  O      904.174     929.936     268.845
  C      904.489     932.293     268.323
  N      903.747     933.524     268.568
  C      903.698     933.957     269.903
  O      904.231     933.331     270.817
  N      903.011     935.113     270.126
  C      902.355     935.856     269.185
  O      901.767     936.891     269.450
  C      902.401     935.333     267.815
  C      903.083     934.208     267.567
  O      903.061     933.924     262.691
  O      905.535     934.417     263.349
  H      902.523     933.263     262.218
  H      905.121     929.948     268.620
  H      902.981     935.449     271.082
  H      901.860     935.879     267.050
  H      903.122     933.800     266.565
  H      905.199     932.155     269.144
  H      902.574     931.190     268.600
  H      902.861     931.541     266.208
  H      905.675     930.426     266.605
  H      906.188     931.965     264.694
  H      905.165     930.590     264.239
  P      902.366     929.336     264.944
  C      903.940     927.737     263.595
  O      903.392     929.023     263.754
  O      901.919     930.850     264.677
  O      901.249     928.368     265.096
  H      902.642     931.496     264.785
  H      904.318     927.633     262.575
  H      903.176     926.966     263.772
  H      904.779     927.599     264.297
  H      904.151     931.472     260.192
  H      903.468     933.049     260.510
  H      902.969     931.672     261.464

 3  4  5  6  7  8  9  10  11  12  13  24  28  29  30  31  32 0
 6-311+G(2d,p)
 ****
 33  34 0
 6-311+G(2d,p)
 ****
 1  2  14  15  16  17  18  19  20  21  22  23  25  26  27 0
 3-21G
 ****
 35  36  37  38  39  40  41  42  43  44  45 0
 3-21G
 ****


