%nproc=1
%NoSave
%Mem=1900MB
#P OB98/GEN NMR

erre ene a

0 1
  C      288.350     -39.741      11.696
  O      287.530     -40.250      10.657
  P      288.033     -40.062       9.143
  C      289.901     -41.810       9.629
  O      289.566     -40.538       9.104
  C      290.887     -42.529       8.709
  O      291.225     -43.812       9.300
  C      290.364     -42.806       7.294
  O      291.490     -42.744       6.410
  C      289.869     -44.238       7.387
  O      289.783     -44.875       6.117
  C      290.906     -44.835       8.333
  N      290.561     -49.877       8.148
  C      291.060     -48.990       7.212
  N      291.595     -49.533       6.098
  N      291.038     -47.690       7.357
  C      290.489     -47.296       8.530
  C      289.925     -48.073       9.515
  C      289.990     -49.508       9.361
  O      289.639     -50.333      10.202
  N      289.387     -47.306      10.514
  C      289.696     -46.072      10.172
  N      290.404     -46.018       9.000
  O      288.126     -38.472       8.995
  O      287.171     -40.688       8.092
  H      289.285     -45.710       6.233
  H      287.303     -38.106       8.614
  H      290.622     -50.870       7.990
  H      289.441     -45.184      10.732
  H      291.835     -45.117       7.814
  H      288.869     -44.255       7.840
  H      291.673     -50.527       5.934
  H      289.586     -42.110       6.972
  H      291.998     -48.909       5.410
  H      291.812     -41.938       8.664
  H      288.992     -42.415       9.704
  H      290.322     -41.693      10.634
  P      291.244     -42.205       4.920
  C      292.182     -39.857       5.485
  O      291.092     -40.614       5.000
  O      289.752     -42.701       4.604
  O      292.204     -42.724       3.900
  H      289.665     -42.893       3.653
  H      292.091     -38.832       5.116
  H      293.139     -40.270       5.149
  H      292.159     -39.842       6.577
  H      287.890     -39.938      12.642
  H      288.470     -38.685      11.571
  H      289.308     -40.216      11.659

 3  4  5  6  7  8  9  10  11  12  23  26  30  31 0
 6-311+G(2d,p)
 ****
 33  35  36  37  38 0
 6-311+G(2d,p)
 ****
 1  2  13  14  15  16  17  18  19  20  21  22  24  25 0
 3-21G
 ****
 27  28  29  32  34  39  40  41  42  43  44  45  46  47  48  49 0
 3-21G
 ****


