%nproc=1
%NoSave
%Mem=1900MB
#P OB98/GEN NMR

erre ene a

0 1
  C     -212.053     378.427    -751.261
  O     -211.740     377.523    -752.302
  H     -212.286     379.409    -751.673
  H     -212.928     378.053    -750.722
  H     -211.215     378.504    -750.564
  P     -210.500     377.908    -753.245
  C     -209.129     375.716    -753.019
  O     -209.222     377.098    -752.695
  C     -207.723     375.392    -753.517
  O     -207.498     376.113    -754.757
  C     -206.595     375.767    -752.538
  O     -205.813     374.611    -752.219
  C     -205.718     376.736    -753.321
  O     -204.325     376.529    -753.111
  C     -206.112     376.477    -754.772
  N     -202.835     378.724    -757.964
  C     -202.985     377.430    -757.600
  N     -203.943     376.879    -756.830
  C     -204.835     377.812    -756.438
  C     -204.826     379.160    -756.749
  C     -203.758     379.617    -757.537
  N     -203.576     380.945    -757.864
  N     -205.899     379.804    -756.156
  C     -206.517     378.865    -755.471
  N     -205.899     377.647    -755.593
  O     -210.185     379.426    -752.835
  O     -210.751     377.770    -754.708
  H     -204.153     376.710    -752.170
  H     -210.089     379.967    -753.640
  H     -202.228     376.743    -757.974
  H     -207.380     379.017    -754.831
  H     -205.550     375.642    -755.209
  H     -205.966     377.761    -753.020
  H     -206.967     376.234    -751.619
  H     -207.678     374.324    -753.755
  H     -209.852     375.476    -753.809
  H     -202.720     381.198    -758.331
  H     -204.192     381.631    -757.454
  H     -209.374     375.126    -752.131
  P     -205.171     374.562    -750.742
  C     -206.858     372.642    -750.246
  O     -206.234     373.835    -749.783
  O     -205.235     376.089    -750.273
  O     -203.781     374.021    -750.708
  H     -204.533     376.269    -749.617
  H     -207.535     372.281    -749.500
  H     -206.111     371.901    -750.439
  H     -207.397     372.848    -751.147

 6  7  8  9  10  11  12  13  14  15  25  28  32  33  34  35 0
 6-311+G(2d,p)
 ****
 36  39  40 0
 6-311+G(2d,p)
 ****
 1  2  3  4  5  16  17  18  19  20  21  22  23  24 0
 3-21G
 ****
 26  27  29  30  31  37  38  41  42  43  44  45  46  47  48 0
 3-21G
 ****


