%nproc=1
%NoSave
%Mem=1900MB
#P OB98/GEN NMR

erre ene a

0 1
  C      -24.735    -845.107     249.992
  O      -24.412    -844.807     251.341
  P      -25.268    -845.434     252.536
  C      -27.403    -844.021     252.286
  O      -26.259    -844.301     253.090
  C      -28.633    -843.803     253.166
  O      -29.144    -845.060     253.654
  C      -28.363    -842.975     254.412
  O      -28.181    -841.603     254.111
  C      -29.601    -843.289     255.240
  O      -30.718    -842.496     254.814
  C      -29.834    -844.779     254.897
  N      -29.402    -845.668     255.962
  C      -30.415    -846.228     256.745
  O      -31.584    -845.899     256.576
  N      -30.068    -847.144     257.715
  C      -28.816    -847.376     257.957
  N      -28.532    -848.330     258.881
  C      -27.711    -846.681     257.259
  C      -28.074    -845.864     256.268
  O      -24.481    -846.141     253.587
  O      -26.271    -846.450     251.804
  H      -26.229    -847.314     252.252
  H      -31.444    -842.670     255.447
  H      -26.689    -846.857     257.549
  H      -27.332    -845.328     255.689
  H      -30.898    -844.958     254.696
  H      -29.447    -843.087     256.306
  H      -27.477    -843.358     254.923
  H      -29.411    -843.333     252.548
  H      -29.313    -848.797     259.321
  H      -27.577    -844.868     251.614
  H      -27.636    -848.809     258.913
  H      -27.203    -843.133     251.677
  P      -26.780    -840.949     254.535
  C      -27.225    -840.994     257.088
  O      -27.001    -840.207     255.934
  O      -26.595    -839.751     253.491
  O      -25.614    -841.889     254.494
  H      -25.657    -839.658     253.253
  H      -27.010    -840.391     257.966
  H      -26.588    -841.876     257.095
  H      -28.279    -841.302     257.114
  H      -24.055    -844.598     249.341
  H      -25.735    -844.786     249.785
  H      -24.659    -846.162     249.833

 3  4  5  6  7  8  9  10  11  12  13  24  27  28  29  30  32 0
 6-311+G(2d,p)
 ****
 34  35 0
 6-311+G(2d,p)
 ****
 1  2  14  15  16  17  18  19  20  21  22  23  25  26 0
 3-21G
 ****
 31  33  36  37  38  39  40  41  42  43  44  45  46 0
 3-21G
 ****


