%nproc=1
%NoSave
%Mem=1900MB
#P OB98/GEN NMR

erre ene a

0 1
  C      -91.920    -216.920    -262.544
  O      -92.685    -218.047    -262.913
  P      -93.292    -218.256    -264.376
  C      -95.701    -218.276    -263.402
  O      -94.744    -218.932    -264.225
  C      -96.812    -219.216    -262.906
  O      -97.524    -219.757    -264.037
  C      -96.197    -220.414    -262.171
  O      -95.835    -220.304    -260.809
  C      -97.108    -221.590    -262.503
  O      -98.053    -221.860    -261.467
  C      -97.823    -221.137    -263.777
  N      -98.054    -225.667    -266.038
  C      -98.777    -225.196    -264.959
  N      -99.510    -226.114    -264.293
  N      -98.760    -223.950    -264.567
  C      -97.905    -223.173    -265.272
  C      -97.148    -223.523    -266.367
  C      -97.209    -224.894    -266.819
  O      -96.521    -225.369    -267.717
  N      -96.343    -222.493    -266.783
  C      -96.582    -221.529    -265.915
  N      -97.491    -221.909    -264.958
  O      -92.362    -218.779    -265.422
  O      -93.667    -216.738    -264.781
  H      -97.559    -221.994    -260.640
  H      -93.523    -216.648    -265.742
  H      -98.048    -226.659    -266.247
  H      -96.099    -220.560    -265.916
  H      -98.911    -221.200    -263.651
  H      -96.522    -222.507    -262.634
  H      -99.436    -227.103    -264.478
  H      -95.249    -220.641    -262.679
  H      -99.916    -225.841    -263.404
  H      -97.553    -218.673    -262.316
  H      -96.125    -217.450    -263.984
  H      -95.196    -217.833    -262.538
  P      -94.412    -220.663    -260.173
  C      -95.163    -221.517    -257.880
  O      -94.507    -220.477    -258.585
  O      -93.465    -219.449    -260.617
  O      -93.832    -221.964    -260.620
  H      -92.532    -219.732    -260.585
  H      -95.436    -221.157    -256.887
  H      -94.484    -222.369    -257.775
  H      -96.069    -221.838    -258.407
  H      -91.628    -217.008    -261.518
  H      -92.505    -216.034    -262.674
  H      -91.047    -216.864    -263.160

 3  4  5  6  7  8  9  10  11  12  23  26  30  31 0
 6-311+G(2d,p)
 ****
 33  35  36  37  38 0
 6-311+G(2d,p)
 ****
 1  2  13  14  15  16  17  18  19  20  21  22  24  25 0
 3-21G
 ****
 27  28  29  32  34  39  40  41  42  43  44  45  46  47  48  49 0
 3-21G
 ****


