%nproc=1
%NoSave
%Mem=1900MB
#P OB98/GEN NMR

erre ene a

0 1
  C     -361.697    -102.238     145.388
  O     -361.270    -103.534     144.987
  P     -359.914    -104.105     145.642
  C     -358.050    -104.330     143.860
  O     -358.720    -103.476     144.784
  C     -358.774    -104.342     142.519
  O     -359.103    -102.990     142.128
  C     -357.952    -104.901     141.360
  O     -357.972    -106.330     141.342
  C     -358.697    -104.328     140.169
  O     -359.851    -105.147     139.874
  C     -359.134    -102.948     140.683
  N     -357.755    -100.116     136.705
  C     -358.688    -101.137     136.795
  N     -359.361    -101.429     135.657
  N     -358.925    -101.816     137.887
  C     -358.199    -101.392     138.953
  C     -357.246    -100.395     138.998
  C     -356.951     -99.689     137.766
  O     -356.097     -98.824     137.618
  N     -356.736    -100.245     140.258
  C     -357.409    -101.121     140.986
  N     -358.284    -101.863     140.232
  O     -359.925    -105.645     145.209
  O     -359.815    -103.942     147.128
  H     -359.521    -106.041     139.691
  H     -359.400    -106.170     145.853
  H     -357.618     -99.620     135.850
  H     -357.290    -101.251     142.058
  H     -360.169    -102.729     140.394
  H     -358.085    -104.308     139.254
  H     -359.314    -100.855     134.825
  H     -356.930    -104.511     141.376
  H     -360.076    -102.145     135.710
  H     -359.710    -104.903     142.634
  H     -358.034    -105.349     144.259
  H     -357.018    -103.991     143.738
  P     -356.873    -107.046     140.414
  C     -357.900    -108.320     138.400
  O     -357.513    -107.072     138.947
  O     -356.939    -108.570     140.901
  O     -355.502    -106.469     140.530
  H     -356.086    -109.022     140.726
  H     -358.304    -108.988     139.157
  H     -357.043    -108.788     137.916
  H     -358.669    -108.143     137.643
  H     -362.604    -101.988     144.878
  H     -360.941    -101.522     145.143
  H     -361.867    -102.230     146.444

 3  4  5  6  7  8  9  10  11  12  23  26  30  31  33  0
 6-311+G(2d,p)
 ****
 35  36  37  38 0
 6-311+G(2d,p)
 ****
 1  2  13  14  15  16  17  18  19  20  21  22  24  25  27  28  29 0
 3-21G
 ****
 32  34  39  40  41  42  43  44  45  46  47  48  49 0
 3-21G
 ****


