%nproc=1
%NoSave
%Mem=1900MB
#P OB98/GEN NMR

erre ene a

0 1
  C      -25.770     -91.991    -167.692
  O      -24.639     -91.942    -166.847
  H      -25.590     -91.349    -168.559
  H      -26.653     -91.625    -167.161
  H      -25.943     -93.014    -168.040
  P      -24.684     -92.856    -165.528
  C      -23.389     -94.820    -166.635
  O      -24.599     -94.377    -166.033
  C      -23.500     -96.301    -166.986
  O      -22.314     -96.715    -167.703
  C      -23.592     -97.226    -165.778
  O      -24.900     -97.257    -165.233
  C      -23.157     -98.552    -166.386
  O      -24.244     -99.212    -167.046
  C      -22.106     -98.116    -167.416
  N      -18.109    -101.271    -167.619
  C      -19.303    -101.283    -168.252
  N      -20.311    -100.390    -168.156
  C      -19.985     -99.401    -167.308
  C      -18.812     -99.259    -166.586
  C      -17.838    -100.254    -166.768
  N      -16.639    -100.261    -166.097
  N      -18.869     -98.135    -165.786
  C      -20.050     -97.603    -166.027
  N      -20.755     -98.331    -166.943
  O      -26.203     -92.703    -165.040
  O      -23.712     -92.482    -164.461
  H      -23.939    -100.117    -167.249
  H      -26.260     -91.997    -164.369
  H      -19.471    -102.123    -168.921
  H      -20.439     -96.706    -165.561
  H      -22.207     -98.658    -168.365
  H      -22.778     -99.233    -165.623
  H      -22.862     -96.928    -165.016
  H      -24.364     -96.438    -167.648
  H      -22.561     -94.678    -165.931
  H      -23.200     -94.223    -167.533
  H      -15.997    -101.020    -166.259
  H      -16.472     -99.566    -165.382
  P      -25.179     -98.197    -163.968
  C      -25.466     -96.130    -162.416
  O      -24.804     -97.363    -162.649
  O      -24.020     -99.296    -164.065
  O      -26.535     -98.818    -163.938
  H      -24.364    -100.121    -164.453
  H      -25.108     -95.700    -161.504
  H      -26.520     -96.300    -162.341
  H      -25.269     -95.461    -163.227

 6  7  8  9  10  11  12  13  14  15  25  28  32  33  34  35 0
 6-311+G(2d,p)
 ****
 36  37  40 0
 6-311+G(2d,p)
 ****
 1  2  3  4  5  16  17  18  19  20  21  22  23  24 0
 3-21G
 ****
 26  27  29  30  31  38  39 41  42  43  44  45  46  47  48 0
 3-21G
 ****


