%nproc=1
%NoSave
%Mem=1900MB
#P OB98/GEN NMR

erre ene a

0 1
  C     -511.550     749.756    -142.054
  O     -510.577     748.752    -141.850
  H     -511.833     750.186    -141.088
  H     -512.439     749.315    -142.514
  H     -511.161     750.553    -142.689
  P     -509.799     748.211    -143.139
  C     -507.883     749.918    -142.754
  O     -508.851     749.407    -143.660
  C     -507.089     751.057    -143.407
  O     -506.594     750.599    -144.689
  C     -507.929     752.321    -143.656
  O     -507.117     753.470    -143.404
  C     -508.253     752.241    -145.144
  O     -508.506     753.525    -145.713
  C     -507.005     751.549    -145.688
  N     -507.787     752.340    -150.602
  C     -507.449     753.234    -149.592
  N     -507.317     754.522    -149.949
  N     -507.271     752.875    -148.353
  C     -507.409     751.545    -148.151
  C     -507.743     750.571    -149.050
  C     -507.967     750.975    -150.422
  O     -508.298     750.245    -151.351
  N     -507.824     749.338    -148.449
  C     -507.540     749.567    -147.181
  N     -507.265     750.898    -146.948
  O     -510.946     748.139    -144.256
  O     -509.117     746.893    -142.972
  H     -508.821     753.384    -146.632
  H     -511.090     747.212    -144.520
  H     -507.931     752.676    -151.543
  H     -507.515     748.826    -146.397
  H     -506.181     752.257    -145.850
  H     -509.143     751.617    -145.292
  H     -507.384     754.863    -150.895
  H     -508.829     752.368    -143.041
  H     -507.022     755.194    -149.237
  H     -506.223     751.274    -142.779
  H     -507.195     749.115    -142.477
  H     -508.390     750.281    -141.847
  P     -507.738     754.614    -142.468
  C     -506.760     753.449    -140.377
  O     -507.904     754.016    -140.982
  O     -509.259     754.721    -142.989
  O     -507.043     755.926    -142.557
  H     -509.371     755.555    -143.486
  H     -507.012     753.094    -139.400
  H     -505.993     754.191    -140.300
  H     -506.409     752.633    -140.973

 6  7  8  9  10  11  12  13  14  15  26  29  33  34 0
 6-311+G(2d,p)
 ****
 36  38  39  40  41 0
 6-311+G(2d,p)
 ****
 1  2  3  4  5  16  17  18  19  20  21  22  23  24  25 0
 3-21G
 ****
 27  28  30  31  32  35  37  42  43  44  45  46  47 0
 3-21G
 ****
 48  49 0
 3-21G
 ****


