%nproc=1
%NoSave
%Mem=1900MB
#P OB98/GEN NMR

erre ene a

0 1
  C       74.628     376.383    -210.883
  O       76.056     376.403    -211.051
  P       76.944     376.117    -209.742
  C       78.812     374.873    -211.041
  O       78.481     375.968    -210.197
  C       80.334     374.780    -211.249
  O       80.793     375.820    -212.163
  C       81.147     374.910    -209.961
  O       82.308     374.082    -210.090
  C       81.577     376.365    -209.987
  O       82.694     376.598    -209.140
  C       81.836     376.553    -211.484
  N       84.105     381.079    -210.807
  C       84.340     379.859    -210.272
  N       83.680     378.697    -210.488
  C       82.693     378.887    -211.393
  C       82.333     380.072    -212.012
  C       83.082     381.219    -211.682
  N       82.824     382.459    -212.198
  N       81.233     379.876    -212.840
  C       80.952     378.586    -212.713
  N       81.824     377.947    -211.876
  O       76.522     374.633    -209.328
  O       76.698     377.085    -208.629
  H       83.055     377.491    -209.318
  H       75.972     374.645    -208.522
  H       85.183     379.809    -209.570
  H       80.132     378.087    -213.205
  H       82.811     376.143    -211.795
  H       80.750     377.009    -209.648
  H       80.595     374.656    -209.051
  H       80.543     373.800    -211.727
  H       78.318     374.993    -212.019
  H       83.398     383.240    -211.888
  H       82.034     382.581    -212.821
  H       78.409     373.950    -210.613
  P       82.120     372.530    -209.712
  C       83.190     371.605    -211.885
  O       83.286     371.738    -210.482
  O       80.786     372.106    -210.489
  O       82.022     372.274    -208.235
  H       80.356     371.357    -210.033
  H       84.185     371.741    -212.315
  H       82.504     372.337    -212.334
  H       82.830     370.596    -212.122
  H       74.156     376.586    -211.821
  H       74.342     377.129    -210.171
  H       74.324     375.419    -210.532

 3  4  5  6  7  8  9  10  11  12  22  25  29  30  31  32 0
 6-311+G(2d,p)
 ****
 33  36  37 0
 6-311+G(2d,p)
 ****
 1  2  13  14  15  16  17  18  19  20  21  23  24  26 0
 3-21G
 ****
 27  28  34  35  38  39  40  41  42  43  44  45  46  47  48 0
 3-21G
 ****


