%nproc=1
%NoSave
%Mem=1900MB
#P OB98/GEN NMR

erre ene a

0 1
  C      -27.425    -178.402      88.782
  O      -26.366    -178.845      87.959
  H      -27.634    -179.143      89.557
  H      -27.132    -177.464      89.261
  H      -28.322    -178.226      88.183
  P      -26.603    -180.228      87.179
  C      -25.091    -179.557      85.189
  O      -25.306    -180.466      86.258
  C      -24.148    -178.441      85.633
  O      -22.990    -179.050      86.261
  C      -23.653    -177.543      84.487
  O      -23.835    -176.161      84.816
  C      -22.165    -177.830      84.407
  O      -21.398    -176.688      84.044
  C      -21.843    -178.316      85.815
  N      -16.751    -178.230      86.054
  C      -17.677    -177.315      86.414
  N      -19.020    -177.437      86.416
  C      -19.386    -178.668      86.021
  C      -18.557    -179.712      85.645
  C      -17.176    -179.449      85.651
  N      -16.235    -180.364      85.231
  N      -19.298    -180.825      85.294
  C      -20.554    -180.445      85.414
  N      -20.657    -179.145      85.835
  O      -27.753    -179.860      86.126
  O      -27.000    -181.371      88.049
  H      -21.840    -175.908      84.424
  H      -28.534    -180.416      86.308
  H      -17.287    -176.354      86.740
  H      -21.419    -181.047      85.166
  H      -21.688    -177.478      86.508
  H      -21.993    -178.617      83.663
  H      -24.153    -177.759      83.537
  H      -24.652    -177.840      86.400
  H      -26.046    -179.116      84.883
  H      -15.280    -180.053      85.157
  H      -16.556    -181.232      84.826
  H      -24.666    -180.100      84.338
  P      -25.307    -175.559      84.566
  C      -25.753    -174.132      86.690
  O      -25.396    -174.139      85.314
  O      -26.243    -176.519      85.438
  O      -25.718    -175.553      83.132
  H      -26.934    -176.914      84.873
  H      -25.771    -173.124      87.049
  H      -25.035    -174.696      87.248
  H      -26.722    -174.571      86.809

 6  7  8  9  10  11  12  13  14  15  25  28  32  33  34  35 0
 6-311+G(2d,p)
 ****
 36  39  40 0
 6-311+G(2d,p)
 ****
 1  2  3  4  5  16  17  18  19  20  21  22  23  24 0
 3-21G
 ****
 26  27  29  30  31  37  38  41  42  43  44  45  46  47  48 0
 3-21G
 ****


