%nproc=1
%NoSave
%Mem=1900MB
#P OB98/GEN NMR

erre ene a

0 1
  C     -661.657    -486.472     101.493
  O     -662.568    -486.147     100.448
  P     -664.134    -486.444     100.709
  C     -665.500    -488.524     101.449
  O     -664.244    -488.004     101.032
  C     -665.577    -490.023     101.167
  O     -664.414    -490.702     101.688
  C     -666.775    -490.717     101.816
  O     -667.961    -490.549     101.065
  C     -666.311    -492.172     101.775
  O     -666.542    -492.722     100.463
  C     -664.816    -492.040     102.066
  N     -664.578    -495.538     105.730
  C     -664.774    -495.690     104.368
  N     -664.999    -496.954     103.934
  N     -664.746    -494.700     103.498
  C     -664.536    -493.496     104.092
  C     -664.308    -493.215     105.421
  C     -664.351    -494.318     106.358
  O     -664.237    -494.232     107.574
  N     -664.121    -491.871     105.621
  C     -664.195    -491.338     104.415
  N     -664.484    -492.280     103.460
  O     -664.772    -486.319      99.243
  O     -664.790    -485.528     101.690
  H     -665.912    -492.278      99.863
  H     -665.735    -486.215      99.312
  H     -664.606    -496.324     106.334
  H     -664.080    -490.287     104.197
  H     -664.218    -492.739     101.457
  H     -666.864    -492.800     102.485
  H     -665.086    -497.747     104.544
  H     -666.893    -490.398     102.858
  H     -665.201    -497.094     102.945
  H     -665.596    -490.169     100.082
  H     -666.294    -488.008     100.910
  H     -665.625    -488.334     102.521
  P     -669.344    -490.700     101.870
  C     -670.512    -492.676     103.081
  O     -669.443    -492.246     102.267
  O     -670.454    -490.508     100.725
  O     -669.516    -489.715     102.982
  H     -671.283    -490.185     101.098
  H     -670.583    -493.768     103.033
  H     -671.461    -492.250     102.733
  H     -670.349    -492.376     104.122
  H     -660.662    -486.225     101.188
  H     -661.716    -487.519     101.705
  H     -661.909    -485.916     102.372

 3  4  5  6  7  8  9  10  11  12  23  26  30  31 0
 6-311+G(2d,p)
 ****
 33  35  36  37  38 0
 6-311+G(2d,p)
 ****
 1  2  13  14  15  16  17  18  19  20  21  22  24  25 0
 3-21G
 ****
 27  28  29  32  34  39  40  41  42  43  44  45  46  47  48  49 0
 3-21G
 ****


