%nproc=1
%NoSave
%Mem=1900MB
#P OB98/GEN NMR

erre ene a

0 1
  C      190.244     132.901     -74.153
  O      191.505     133.525     -74.327
  P      192.765     132.867     -73.577
  C      194.583     133.878     -75.138
  O      194.018     133.828     -73.830
  C      194.936     135.322     -75.503
  O      193.729     136.076     -75.760
  C      195.670     136.089     -74.412
  O      197.033     135.694     -74.334
  C      195.448     137.525     -74.878
  O      196.359     137.844     -75.945
  C      194.004     137.464     -75.417
  N      190.338     140.906     -74.433
  C      191.168     140.747     -75.488
  N      192.129     139.820     -75.669
  C      192.195     138.993     -74.614
  C      191.437     139.043     -73.459
  C      190.465     140.054     -73.382
  N      189.625     140.212     -72.300
  N      191.807     138.043     -72.581
  C      192.766     137.390     -73.205
  N      193.023     137.917     -74.438
  O      193.090     131.580     -74.468
  O      192.518     132.505     -72.146
  H      197.264     137.833     -75.566
  H      193.416     130.844     -73.914
  H      191.034     141.459     -76.304
  H      193.293     136.531     -72.806
  H      193.871     138.063     -76.322
  H      195.594     138.265     -74.088
  H      195.189     135.932     -73.442
  H      195.538     135.300     -76.423
  H      193.865     133.497     -75.866
  H      189.061     141.049     -72.267
  H      189.817     139.672     -71.466
  H      195.472     133.238     -75.170
  P      197.393     134.472     -73.360
  C      199.830     134.991     -73.989
  O      198.916     134.761     -72.925
  O      197.550     133.265     -74.400
  O      196.432     134.253     -72.246
  H      198.113     133.499     -75.158
  H      200.809     135.226     -73.561
  H      199.501     135.836     -74.601
  H      199.924     134.091     -74.607
  H      189.501     133.439     -74.703
  H      189.987     132.900     -73.114
  H      190.292     131.893     -74.510

 3  4  5  6  7  8  9  10  11  12  22  25  29  30  31  32 0
 6-311+G(2d,p)
 ****
 33  36  37 0
 6-311+G(2d,p)
 ****
 1  2  13  14  15  16  17  18  19  20  21  23  24  26 0
 3-21G
 ****
 27  28  34  35  38  39  40  41  42  43  44  45  46  47  48 0
 3-21G
 ****


