%nproc=1
%NoSave
%Mem=1900MB
#P OB98/GEN NMR

erre ene a

0 1
  C      319.381     154.925      19.946
  O      320.073     154.842      21.176
  H      318.805     155.854      19.928
  H      318.692     154.081      19.841
  H      320.089     154.930      19.114
  P      320.899     153.490      21.438
  C      320.004     153.741      23.877
  O      321.116     153.487      23.031
  C      320.472     153.836      25.325
  O      321.064     152.590      25.751
  C      321.539     154.898      25.566
  O      321.008     156.209      25.644
  C      322.092     154.431      26.900
  O      321.175     154.783      27.952
  C      322.132     152.899      26.689
  N      323.417     152.423      26.178
  C      324.346     151.984      27.128
  O      324.079     152.018      28.328
  N      325.578     151.548      26.698
  C      325.854     151.539      25.431
  N      327.091     151.110      25.064
  C      324.899     151.975      24.396
  C      323.716     152.400      24.834
  O      322.364     153.829      20.889
  O      320.305     152.240      20.880
  H      321.565     154.466      28.786
  H      322.985     153.097      21.120
  H      325.179     151.959      23.353
  H      322.964     152.739      24.129
  H      321.909     152.369      27.622
  H      323.055     154.882      27.147
  H      322.339     154.842      24.818
  H      319.589     154.011      25.955
  H      327.745     150.876      25.798
  H      319.289     152.919      23.763
  H      327.456     151.238      24.128
  H      319.520     154.679      23.589
  P      321.030     157.101      24.308
  C      322.903     158.659      25.207
  O      321.572     158.553      24.724
  O      319.478     157.357      24.021
  O      321.721     156.472      23.139
  H      319.287     157.325      23.065
  H      323.117     159.681      25.441
  H      323.583     158.315      24.456
  H      323.012     158.061      26.088

 6  7  8  9  10  11  12  13  14  15  16  26  30  31  32  33  35 0
 6-311+G(2d,p)
 ****
 37  38 0
 6-311+G(2d,p)
 ****
 1  2  3  4  5  17  18  19  20  21  22  23  24  25 0
 3-21G
 ****
 27  28  29  34  36  39  40  41  42  43  44  45  46 0
 3-21G
 ****


