%nproc=1
%NoSave
%Mem=1900MB
#P OB98/GEN NMR

erre ene a

0 1
  C      332.276     118.857     -84.171
  O      330.899     119.243     -84.008
  P      330.096     119.822     -85.274
  C      328.481     121.467     -84.035
  O      328.634     120.274     -84.793
  C      327.000     121.826     -83.914
  O      326.386     121.908     -85.222
  C      326.163     120.808     -83.149
  O      326.355     120.912     -81.747
  C      324.753     121.179     -83.598
  O      324.241     122.279     -82.826
  C      324.986     121.601     -85.062
  N      324.550     120.579     -86.013
  C      323.271     120.733     -86.545
  O      322.506     121.632     -86.202
  N      322.892     119.791     -87.461
  C      323.619     118.700     -87.842
  O      323.212     117.879     -88.656
  C      324.928     118.548     -87.187
  C      325.325     119.476     -86.314
  O      329.771     118.485     -86.103
  O      330.839     120.800     -86.124
  H      323.453     122.608     -83.302
  H      329.693     118.702     -87.052
  H      321.981     119.901     -87.879
  H      325.527     117.681     -87.444
  H      326.287     119.378     -85.826
  H      324.444     122.529     -85.277
  H      324.049     120.351     -83.478
  H      326.397     119.798     -83.501
  H      326.923     122.816     -83.442
  H      329.009     122.285     -84.539
  H      328.927     121.320     -83.047
  P      326.208     119.554     -80.902
  C      325.381     120.895     -78.819
  O      326.318     119.997     -79.367
  O      327.605     118.839     -81.227
  O      325.000     118.756     -81.272
  H      328.328     119.482     -81.346
  H      324.387     120.768     -79.269
  H      325.721     121.920     -78.984
  H      325.301     120.713     -77.742
  H      332.658     118.496     -83.239
  H      332.849     119.704     -84.487
  H      332.345     118.084     -84.908

 3  4  5  6  7  8  9  10  11  12  13  23  28  29  30  31  32 0
 6-311+G(2d,p)
 ****
 33  34 0
 6-311+G(2d,p)
 ****
 1  2  14  15  16  17  18  19  20  21  22  24  25  26 0
 3-21G
 ****
 27  35  36  37  38  39  40  41  42  43  44  45 0
 3-21G
 ****


