%nproc=1
%NoSave
%Mem=1900MB
#P OB98/GEN NMR

erre ene a

0 1
  C       32.866      53.152      27.930
  O       33.512      52.324      26.963
  P       33.953      50.843      27.387
  C       36.064      50.644      25.924
  O       34.737      50.181      26.154
  C       36.801      49.717      24.957
  O       36.834      48.360      25.439
  C       36.152      49.642      23.585
  O       36.403      50.820      22.839
  C       36.779      48.374      23.027
  O       38.083      48.639      22.483
  C       36.903      47.490      24.288
  N       35.901      46.438      24.353
  C       36.007      45.430      23.390
  O       36.884      45.484      22.528
  N       35.105      44.395      23.420
  C       34.177      44.374      24.327
  N       33.314      43.324      24.311
  C       34.024      45.424      25.352
  C       34.906      46.420      25.302
  O       32.880      49.996      27.987
  O       35.133      51.113      28.442
  H       38.620      48.978      23.226
  H       35.148      50.382      29.090
  H       33.238      45.359      26.090
  H       34.865      47.235      26.016
  H       37.891      47.013      24.321
  H       36.177      47.942      22.223
  H       35.069      49.500      23.696
  H       37.835      50.078      24.860
  H       33.433      42.623      23.590
  H       36.602      50.694      26.874
  H       32.591      43.192      25.003
  H       36.018      51.667      25.533
  P       35.218      51.891      22.718
  C       34.977      52.784      20.297
  O       35.606      52.921      21.555
  O       35.382      52.762      24.053
  O       33.848      51.302      22.624
  H       34.506      53.051      24.365
  H       35.102      53.718      19.741
  H       33.909      52.580      20.404
  H       35.450      51.975      19.735
  H       32.639      54.101      27.492
  H       33.515      53.293      28.769
  H       31.961      52.683      28.254

 3  4  5  6  7  8  9  10  11  12  13  23  27  28  29  30  32 0
 6-311+G(2d,p)
 ****
 34  35 0
 6-311+G(2d,p)
 ****
 1  2  14  15  16  17  18  19  20  21  22  24  25  26 0
 3-21G
 ****
 31  33  36  37  38  39  40  41  42  43  44  45  46 0
 3-21G
 ****


