%nproc=1
%NoSave
%Mem=1900MB
#P OB98/GEN NMR

erre ene a

0 1
  C     -161.917     628.222     587.825
  O     -160.725     627.716     588.397
  H     -162.540     628.642     588.621
  H     -162.468     627.413     587.338
  H     -161.689     629.006     587.099
  P     -159.658     627.086     587.378
  C     -160.230     624.569     587.729
  O     -160.292     625.699     586.874
  C     -160.594     623.299     586.953
  O     -159.608     623.093     585.895
  C     -160.596     622.022     587.815
  O     -161.560     621.106     587.273
  C     -159.199     621.480     587.569
  O     -159.113     620.133     587.971
  C     -159.068     621.765     586.081
  N     -155.962     619.659     582.629
  C     -157.304     619.593     582.798
  N     -158.054     620.197     583.744
  C     -157.288     620.948     584.549
  C     -155.917     621.110     584.500
  C     -155.241     620.413     583.489
  N     -153.871     620.459     583.319
  N     -155.490     621.941     585.528
  C     -156.588     622.273     586.166
  N     -157.701     621.697     585.608
  O     -158.460     626.631     588.339
  O     -159.192     627.993     586.287
  H     -159.222     620.045     588.936
  H     -157.800     627.342     588.403
  H     -157.837     618.978     582.081
  H     -156.642     622.921     587.037
  H     -159.655     621.079     585.468
  H     -158.452     622.039     588.152
  H     -160.826     622.213     588.867
  H     -161.569     623.447     586.457
  H     -160.931     624.715     588.554
  H     -159.218     624.467     588.130
  H     -153.463     619.907     582.589
  H     -153.314     620.988     583.975
  P     -162.747     620.571     588.209
  C     -162.068     618.464     589.590
  O     -162.155     619.882     589.532
  O     -163.285     619.308     587.380
  O     -163.860     621.541     588.453
  H     -164.260     619.324     587.350
  H     -161.655     618.170     590.532
  H     -161.438     618.113     588.800
  H     -163.045     618.042     589.482

 6  7  8  9  10  11  12  13  14  15  25  28  32  33  34  35 0
 6-311+G(2d,p)
 ****
 36  37  40 0
 6-311+G(2d,p)
 ****
 1  2  3  4  5  16  17  18  19  20  21  22  23  24 0
 3-21G
 ****
 26  27  29  30  31  38  39 41  42  43  44  45  46  47  48 0
 3-21G
 ****


