%nproc=1
%NoSave
%Mem=1900MB
#P OB98/GEN NMR

erre ene a

0 1
  C     -242.984     342.833    -227.199
  O     -242.114     343.500    -226.306
  H     -243.969     342.750    -226.727
  H     -242.618     341.823    -227.422
  H     -243.087     343.405    -228.124
  P     -240.545     343.520    -226.655
  C     -240.087     345.093    -224.652
  O     -239.800     343.832    -225.263
  C     -239.776     345.051    -223.151
  O     -240.547     344.011    -222.512
  C     -238.323     344.726    -222.833
  O     -237.412     345.754    -223.183
  C     -238.407     344.251    -221.392
  O     -238.347     345.310    -220.436
  C     -239.806     343.579    -221.355
  N     -239.723     342.128    -221.265
  C     -239.569     341.607    -219.982
  O     -239.491     342.302    -218.963
  N     -239.474     340.245    -219.897
  C     -239.460     339.377    -220.960
  O     -239.325     338.160    -220.825
  C     -239.596     339.989    -222.287
  C     -239.717     341.322    -222.380
  O     -240.137     344.432    -227.779
  O     -240.195     341.981    -226.919
  H     -237.438     345.662    -220.457
  H     -239.335     341.887    -227.398
  H     -239.376     339.838    -218.981
  H     -239.582     339.337    -223.156
  H     -239.816     341.800    -223.351
  H     -240.369     343.935    -220.473
  H     -237.588     343.562    -221.148
  H     -238.037     343.853    -223.433
  H     -240.075     346.012    -222.713
  H     -241.154     345.293    -224.793
  H     -239.506     345.881    -225.139
  P     -235.828     345.604    -223.048
  C     -235.015     346.653    -225.282
  O     -235.137     346.800    -223.875
  O     -235.267     344.218    -223.182
  O     -235.591     346.065    -221.520
  H     -234.851     345.536    -221.159
  H     -234.540     347.520    -225.691
  H     -235.987     346.541    -225.715
  H     -234.426     345.787    -225.500

 6  7  8  9  10  11  12  13  14  15  16  26  31  32  33  34  35 0
 6-311+G(2d,p)
 ****
 36  37 0
 6-311+G(2d,p)
 ****
 1  2  3  4  5  17  18  19  20  21  22  23  24  25 0
 3-21G
 ****
 27  28  29  30  38  39  40  41  42  43  44  45 0
 3-21G
 ****


