%nproc=1
%NoSave
%Mem=1900MB
#P OB98/GEN NMR

erre ene a

0 1
  C       10.968       6.448     480.658
  O       11.141       7.673     481.340
  H       11.235       6.590     479.609
  H        9.924       6.131     480.712
  H       11.613       5.670     481.081
  P       10.993       7.696     482.936
  C        8.953       9.273     482.798
  O       10.261       9.072     483.310
  C        8.298      10.502     483.443
  O        8.139      10.244     484.872
  C        9.119      11.800     483.306
  O        8.179      12.885     483.278
  C        9.906      11.781     484.605
  O       10.546      13.003     484.867
  C        8.793      11.334     485.562
  N        9.239      10.909     486.885
  C        9.939      11.830     487.655
  O       10.204      12.978     487.309
  N       10.349      11.384     488.888
  C       10.118      10.149     489.413
  O       10.481       9.814     490.532
  C        9.379       9.217     488.549
  C        8.974       9.634     487.343
  O       12.237       7.411     483.706
  O        9.858       6.601     483.225
  H       10.272       5.775     483.536
  H        9.870      13.711     484.918
  H       10.850      12.039     489.463
  H        9.188       8.222     488.925
  H        8.419       8.972     486.688
  H        8.051      12.130     485.675
  H       10.698      11.032     484.549
  H        9.733      11.823     482.403
  H        7.290      10.623     483.029
  H        8.357       8.378     483.018
  H        9.005       9.404     481.713
  P        7.772      13.667     481.936
  C        9.603      15.453     482.364
  O        8.227      15.199     482.095
  O        6.340      13.501     481.549
  O        8.748      13.097     480.801
  H        8.320      13.188     479.928
  H        9.762      16.508     482.445
  H       10.200      15.062     481.567
  H        9.880      14.979     483.283

 6  7  8  9  10  11  12  13  14  15  16  27  31  32  33  34  35 0
 6-311+G(2d,p)
 ****
 36  37 0
 6-311+G(2d,p)
 ****
 1  2  3  4  5  17  18  19  20  21  22  23  24  25 0
 3-21G
 ****
 26  28  29  30  38  39  40  41  42  43  44  45 0
 3-21G
 ****


