%nproc=1
%NoSave
%Mem=1900MB
#P OB98/GEN NMR

erre ene a

0 1
  C     -125.582      64.980     758.607
  O     -124.838      66.076     758.103
  H     -126.585      65.009     758.176
  H     -125.668      65.050     759.697
  H     -125.097      64.040     758.331
  P     -123.337      66.241     758.650
  C     -122.336      66.905     760.947
  O     -123.518      66.673     760.189
  C     -122.452      68.220     761.713
  O     -123.641      68.229     762.520
  C     -121.293      68.488     762.673
  O     -120.195      69.062     761.974
  C     -121.928      69.491     763.621
  O     -121.899      70.803     763.029
  C     -123.377      68.992     763.725
  N     -126.113      68.586     768.053
  C     -125.916      69.631     767.213
  N     -125.134      69.678     766.106
  C     -124.526      68.503     765.905
  C     -124.631      67.351     766.680
  C     -125.480      67.425     767.801
  N     -125.677      66.363     768.661
  N     -123.850      66.334     766.166
  C     -123.337      66.847     765.059
  N     -123.684      68.160     764.875
  O     -122.437      67.095     757.823
  O     -122.892      64.703     758.778
  H     -120.963      71.064     762.963
  H     -123.620      64.164     759.127
  H     -126.456      70.540     767.452
  H     -122.726      66.290     764.352
  H     -124.099      69.824     763.747
  H     -121.402      69.559     764.573
  H     -121.013      67.590     763.232
  H     -122.546      69.033     760.992
  H     -121.468      66.934     760.284
  H     -126.139      66.562     769.533
  H     -125.099      65.543     768.541
  H     -122.220      66.065     761.637
  P     -118.694      68.872     762.501
  C     -117.523      69.424     764.721
  O     -118.765      69.170     764.075
  O     -117.670      69.656     761.744
  O     -118.443      67.292     762.441
  H     -117.489      67.107     762.486
  H     -117.693      69.608     765.761
  H     -117.059      70.281     764.278
  H     -116.883      68.574     764.609

 6  7  8  9  10  11  12  13  14  15  25  28  32  33  34  35 0
 6-311+G(2d,p)
 ****
 36  39  40 0
 6-311+G(2d,p)
 ****
 1  2  3  4  5  16  17  18  19  20  21  22  23  24 0
 3-21G
 ****
 26  27  29  30  31  37  38  41  42  43  44  45  46  47 0
 3-21G
 ****
 48 0
 3-21G
 ****


