%nproc=1
%NoSave
%Mem=1900MB
#P OB98/GEN NMR

erre ene a

0 1
  C      961.821    -890.996    -623.802
  O      962.699    -892.036    -623.420
  H      962.032    -890.086    -623.229
  H      961.976    -890.786    -624.870
  H      960.783    -891.296    -623.655
  P      962.630    -892.486    -621.874
  C      962.424    -894.996    -622.508
  O      961.836    -893.886    -621.837
  C      961.613    -896.256    -622.268
  O      961.268    -896.296    -620.847
  C      960.291    -896.326    -623.041
  O      960.183    -897.586    -623.724
  C      959.188    -896.236    -622.004
  O      958.058    -897.006    -622.331
  C      959.911    -896.756    -620.744
  N      956.904    -898.076    -616.850
  C      957.661    -898.816    -617.680
  N      958.505    -898.406    -618.659
  C      958.576    -897.046    -618.675
  C      957.888    -896.156    -617.870
  C      957.006    -896.726    -616.919
  N      956.203    -895.956    -616.113
  N      958.212    -894.846    -618.173
  C      959.048    -894.956    -619.216
  N      959.297    -896.266    -619.544
  O      961.586    -891.436    -621.244
  O      963.937    -892.446    -621.170
  H      958.359    -897.916    -622.533
  H      962.037    -890.936    -620.538
  H      957.551    -899.896    -617.572
  H      959.476    -894.126    -619.759
  H      959.936    -897.856    -620.706
  H      958.907    -895.186    -621.903
  H      960.201    -895.506    -623.788
  H      962.233    -897.106    -622.479
  H      963.455    -895.136    -622.134
  H      955.497    -896.436    -615.539
  H      956.177    -894.956    -616.236
  H      962.467    -894.766    -623.578
  P      960.832    -897.666    -625.184
  C      962.802    -899.176    -624.389
  O      962.427    -897.946    -625.025
  O      960.789    -896.166    -625.731
  O      960.120    -898.606    -626.130
  H      960.276    -896.116    -626.558
  H      963.869    -899.243    -624.344
  H      962.416    -900.000    -624.951
  H      962.401    -899.201    -623.397

 6  7  8  9  10  11  12  13  14  15  25  28  32  33  34  35 0
 6-311+G(2d,p)
 ****
 36  39  40 0
 6-311+G(2d,p)
 ****
 1  2  3  4  5  16  17  18  19  20  21  22  23  24 0
 3-21G
 ****
 26  27  29  30  31  37  38  41  42  43  44  45  46  47  48 0
 3-21G
 ****


