%nproc=1
%NoSave
%Mem=1900MB
#P OB98/GEN NMR

erre ene a

0 1
  C     -737.369    1024.600    -138.715
  O     -737.842    1025.933    -138.625
  H     -736.346    1024.624    -139.118
  H     -738.008    1024.020    -139.388
  H     -737.341    1024.129    -137.720
  P     -739.256    1026.139    -137.893
  C     -738.419    1028.631    -137.879
  O     -739.521    1027.723    -137.815
  C     -738.842    1029.979    -137.271
  O     -739.495    1029.802    -136.006
  C     -737.663    1030.889    -136.941
  O     -737.019    1031.423    -138.094
  C     -738.346    1031.928    -136.076
  O     -739.051    1032.884    -136.885
  C     -739.334    1031.038    -135.271
  N     -738.890    1030.815    -133.908
  C     -739.138    1031.840    -132.998
  O     -739.713    1032.871    -133.375
  N     -738.712    1031.709    -131.694
  C     -738.112    1030.633    -131.334
  N     -737.698    1030.544    -130.040
  C     -737.870    1029.490    -132.237
  C     -738.262    1029.644    -133.504
  O     -738.929    1025.751    -136.367
  O     -740.403    1025.382    -138.495
  H     -739.581    1033.415    -136.265
  H     -738.171    1026.241    -136.001
  H     -737.350    1028.591    -131.882
  H     -738.110    1028.883    -134.241
  H     -740.340    1031.530    -135.223
  H     -737.640    1032.488    -135.450
  H     -736.942    1030.349    -136.307
  H     -739.526    1030.458    -137.958
  H     -737.867    1031.349    -129.439
  H     -738.086    1028.769    -138.917
  H     -737.191    1029.773    -129.638
  H     -737.612    1028.192    -137.296
  P     -735.448    1031.665    -138.111
  C     -735.635    1031.077    -140.605
  O     -735.059    1031.951    -139.641
  O     -734.595    1030.613    -137.436
  O     -735.300    1033.123    -137.457
  H     -735.759    1033.836    -137.933
  H     -735.308    1031.360    -141.584
  H     -736.702    1031.142    -140.553
  H     -735.328    1030.072    -140.403

 6  7  8  9  10  11  12  13  14  15  16  26  30  31  32  33  35 0
 6-311+G(2d,p)
 ****
 37  38 0
 6-311+G(2d,p)
 ****
 1  2  3  4  5  17  18  19  20  21  22  23  24  25 0
 3-21G
 ****
 27  28  29  34  36  39  40  41  42  43  44  45  46 0
 3-21G
 ****


