%nproc=1
%NoSave
%Mem=1900MB
#P OB98/GEN NMR

erre ene a

0 1
  C     -124.109     332.471     580.784
  O     -125.204     331.627     580.494
  H     -124.466     333.312     581.385
  H     -123.685     332.860     579.855
  H     -123.343     331.935     581.346
  P     -124.866     330.224     579.791
  C     -127.396     330.059     579.217
  O     -126.059     329.934     578.751
  C     -128.276     330.673     578.130
  O     -127.773     331.972     577.749
  C     -128.352     329.851     576.847
  O     -129.303     328.799     576.943
  C     -128.804     330.917     575.857
  O     -130.217     331.164     576.030
  C     -127.994     332.135     576.318
  N     -125.210     335.014     573.203
  C     -126.501     335.188     573.655
  N     -127.157     336.281     573.203
  N     -127.112     334.366     574.471
  C     -126.341     333.305     574.828
  C     -125.045     333.028     574.451
  C     -124.385     333.951     573.559
  O     -123.229     333.858     573.150
  N     -124.594     331.873     575.034
  C     -125.620     331.439     575.738
  N     -126.711     332.274     575.645
  O     -125.128     329.152     580.957
  O     -123.486     330.100     579.239
  H     -130.687     330.436     575.578
  H     -124.478     328.432     580.874
  H     -124.795     335.675     572.569
  H     -125.627     330.537     576.337
  H     -128.535     333.073     576.172
  H     -128.652     330.620     574.820
  H     -126.770     336.930     572.530
  H     -127.362     329.476     576.552
  H     -128.098     336.449     573.543
  H     -129.283     330.822     578.554
  H     -127.410     330.704     580.101
  H     -127.769     329.069     579.495
  P     -128.802     327.304     576.637
  C     -131.077     326.185     576.052
  O     -129.836     326.712     575.563
  O     -129.162     326.518     577.981
  O     -127.357     327.185     576.289
  H     -128.600     325.721     578.070
  H     -131.662     325.828     575.230
  H     -131.615     326.955     576.564
  H     -130.881     325.378     576.727

 6  7  8  9  10  11  12  13  14  15  26  29  33  34 0
 6-311+G(2d,p)
 ****
 36  38  39  40  41 0
 6-311+G(2d,p)
 ****
 1  2  3  4  5  16  17  18  19  20  21  22  23  24  25 0
 3-21G
 ****
 27  28  30  31  32  35  37  42  43  44  45  46  47 0
 3-21G
 ****
 48  49 0
 3-21G
 ****


