%nproc=1
%NoSave
%Mem=1900MB
#P OB98/GEN NMR

erre ene a

0 1
  C      235.513    -389.065      37.399
  O      236.447    -388.169      37.968
  H      235.712    -390.069      37.783
  H      235.623    -389.075      36.310
  H      234.493    -388.778      37.670
  P      236.219    -386.606      37.674
  C      237.058    -385.908      40.064
  O      237.220    -385.830      38.658
  C      238.155    -385.116      40.777
  O      239.439    -385.698      40.441
  C      238.195    -383.636      40.392
  O      238.569    -382.880      41.547
  C      239.314    -383.572      39.366
  O      239.871    -382.265      39.259
  C      240.272    -384.649      39.899
  N      241.173    -385.156      38.865
  C      242.324    -384.406      38.614
  O      242.537    -383.366      39.240
  N      243.188    -384.822      37.635
  C      242.897    -385.864      36.921
  N      243.781    -386.212      35.948
  C      241.670    -386.661      37.120
  C      240.867    -386.260      38.105
  O      234.777    -386.357      38.325
  O      236.319    -386.228      36.235
  H      240.436    -382.101      40.046
  H      234.672    -386.769      39.198
  H      241.465    -387.514      36.490
  H      239.949    -386.790      38.325
  H      240.880    -384.249      40.721
  H      238.934    -383.856      38.379
  H      237.240    -383.274      40.003
  H      238.026    -385.239      41.858
  H      244.596    -385.625      35.830
  H      237.090    -386.951      40.393
  H      243.630    -386.968      35.297
  H      236.073    -385.503      40.313
  P      237.477    -381.964      42.275
  C      238.260    -381.812      44.736
  O      238.176    -381.162      43.474
  O      236.195    -382.639      42.624
  O      237.216    -380.802      41.195
  H      236.257    -380.616      41.183
  H      238.746    -381.167      45.438
  H      238.822    -382.717      44.635
  H      237.275    -382.042      45.085

 6  7  8  9  10  11  12  13  14  15  16  26  30  31  32  33  35 0
 6-311+G(2d,p)
 ****
 37  38 0
 6-311+G(2d,p)
 ****
 1  2  3  4  5  17  18  19  20  21  22  23  24  25 0
 3-21G
 ****
 27  28  29  34  36  39  40  41  42  43  44  45  46 0
 3-21G
 ****


