%nproc=1
%NoSave
%Mem=1900MB
#P OB98/GEN NMR

erre ene a

0 1
  C       73.716     -60.297    -100.072
  O       72.431     -60.922    -100.132
  P       71.995     -61.797     -98.861
  C       69.738     -62.956     -98.304
  O       70.737     -62.697     -99.282
  C       68.401     -63.250     -98.984
  O       67.838     -62.066     -99.589
  C       68.508     -64.266    -100.114
  O       68.658     -65.580     -99.605
  C       67.195     -64.015    -100.848
  O       66.107     -64.664    -100.169
  C       67.046     -62.490    -100.725
  N       67.808     -57.861    -102.766
  C       67.360     -58.250    -101.552
  N       67.183     -59.504    -101.086
  C       67.533     -60.410    -102.014
  C       68.009     -60.163    -103.291
  C       68.141     -58.816    -103.665
  N       68.583     -58.420    -104.907
  N       68.257     -61.348    -103.954
  C       67.914     -62.291    -103.100
  N       67.481     -61.774    -101.909
  O       71.371     -60.714     -97.863
  O       73.125     -62.542     -98.231
  H       66.303     -64.635     -99.211
  H       71.972     -60.571     -97.109
  H       67.110     -57.448    -100.864
  H       67.961     -63.355    -103.297
  H       66.010     -62.190    -100.530
  H       67.203     -64.382    -101.878
  H       69.355     -64.020    -100.765
  H       67.703     -63.616     -98.219
  H       69.633     -62.098     -97.635
  H       68.573     -57.435    -105.122
  H       68.750     -59.122    -105.613
  H       70.062     -63.799     -97.685
  P       69.869     -66.466    -100.169
  C       71.174     -68.440     -99.171
  O       69.995     -67.661     -99.100
  O       71.129     -65.550     -99.818
  O       69.737     -66.881    -101.594
  H       71.080     -65.198     -98.911
  H       71.146     -69.188     -98.374
  H       72.055     -67.808     -99.035
  H       71.226     -68.953    -100.136
  H       73.887     -59.747    -100.974
  H       74.472     -61.046     -99.962
  H       73.750     -59.631     -99.235

 3  4  5  6  7  8  9  10  11  12  22  25  29  30  31  32 0
 6-311+G(2d,p)
 ****
 33  36  37 0
 6-311+G(2d,p)
 ****
 1  2  13  14  15  16  17  18  19  20  21  23  24  26 0
 3-21G
 ****
 27  28  34  35  38  39  40  41  42  43  44  45  46  47  48 0
 3-21G
 ****


