%nproc=1
%NoSave
%Mem=1900MB
#P OB98/GEN NMR

erre ene a

0 1
  C     -180.373     352.092     314.657
  O     -180.403     353.048     313.593
  P     -180.596     352.547     312.088
  C     -183.006     351.617     311.980
  O     -182.137     352.700     311.672
  C     -184.077     351.476     310.895
  O     -184.819     350.245     311.038
  C     -185.134     352.575     310.959
  O     -184.718     353.879     310.607
  C     -186.277     351.969     310.166
  O     -186.099     352.153     308.759
  C     -186.158     350.471     310.535
  N     -187.166     350.045     311.506
  C     -187.935     348.946     311.140
  O     -187.828     348.374     310.059
  N     -188.870     348.543     312.057
  C     -189.126     349.139     313.258
  O     -189.992     348.750     314.032
  C     -188.298     350.311     313.576
  C     -187.370     350.706     312.701
  O     -179.975     351.233     311.755
  O     -179.897     353.720     311.234
  H     -186.755     351.593     308.309
  H     -179.394     353.303     310.509
  H     -189.434     347.740     311.814
  H     -188.478     350.813     314.517
  H     -186.748     351.569     312.918
  H     -186.267     349.846     309.642
  H     -187.237     352.424     310.427
  H     -185.476     352.646     312.001
  H     -183.583     351.455     309.921
  H     -183.471     351.783     312.955
  H     -182.413     350.699     312.073
  P     -184.565     355.069     311.671
  C     -182.132     355.082     312.570
  O     -183.047     355.592     311.625
  O     -185.180     354.872     313.014
  O     -185.343     356.262     310.920
  H     -185.764     356.824     311.595
  H     -181.161     355.554     312.404
  H     -182.018     354.000     312.445
  H     -182.464     355.307     313.586
  H     -180.237     352.600     315.589
  H     -179.563     351.410     314.501
  H     -181.296     351.551     314.677

 3  4  5  6  7  8  9  10  11  12  13  23  28  29  30  31  32 0
 6-311+G(2d,p)
 ****
 33  34 0
 6-311+G(2d,p)
 ****
 1  2  14  15  16  17  18  19  20  21  22  24  25  26  27 0
 3-21G
 ****
 35  36  37  38  39  40  41  42  43  44  45 0
 3-21G
 ****


