%nproc=1
%NoSave
%Mem=1900MB
#P OB98/GEN NMR

erre ene a

0 1
  C      273.732     159.578     248.285
  O      272.511     159.429     248.978
  H      273.518     159.911     247.266
  H      274.255     158.621     248.237
  H      274.367     160.325     248.769
  P      272.547     159.125     250.551
  C      274.267     160.559     251.834
  O      272.964     160.493     251.276
  C      274.652     162.013     252.141
  O      274.647     162.770     250.892
  C      273.688     162.731     253.108
  O      274.462     163.701     253.828
  C      272.743     163.397     252.126
  O      271.908     164.350     252.736
  C      273.763     163.894     251.091
  N      273.202     164.339     249.822
  C      272.980     165.702     249.652
  O      273.228     166.559     250.499
  N      272.442     166.073     248.446
  C      272.128     165.238     247.416
  O      271.677     165.634     246.347
  C      272.376     163.810     247.655
  C      272.899     163.430     248.825
  O      273.332     157.926     250.962
  O      270.998     158.978     250.939
  H      270.773     158.033     251.030
  H      271.616     164.008     253.608
  H      272.280     167.061     248.306
  H      272.129     163.116     246.863
  H      273.103     162.382     249.028
  H      274.363     164.704     251.519
  H      272.072     162.653     251.685
  H      273.203     162.053     253.815
  H      275.680     162.033     252.520
  H      274.972     160.139     251.108
  H      274.299     159.961     252.749
  P      275.310     163.354     255.145
  C      277.555     162.185     255.710
  O      276.670     162.625     254.682
  O      274.545     162.595     256.178
  O      275.806     164.764     255.715
  H      275.955     164.698     256.675
  H      278.412     161.722     255.268
  H      277.051     161.479     256.336
  H      277.866     163.024     256.297

 6  7  8  9  10  11  12  13  14  15  16  27  31  32  33  34  35 0
 6-311+G(2d,p)
 ****
 36  37 0
 6-311+G(2d,p)
 ****
 1  2  3  4  5  17  18  19  20  21  22  23  24  25 0
 3-21G
 ****
 26  28  29  30  38  39  40  41  42  43  44  45 0
 3-21G
 ****


