%nproc=1
%NoSave
%Mem=1900MB
#P OB98/GEN NMR

erre ene a

0 1
  C        1.705      24.450      12.431
  O        2.687      24.934      13.324
  H        1.223      25.301      11.944
  H        0.947      23.880      12.974
  H        2.169      23.821      11.667
  P        3.479      23.842      14.192
  C        5.180      21.964      13.623
  O        4.166      22.837      13.148
  C        5.256      20.732      12.728
  O        4.035      19.967      12.840
  C        5.402      21.048      11.247
  O        6.729      21.402      10.901
  C        4.962      19.733      10.627
  O        6.041      18.786      10.579
  C        3.855      19.262      11.595
  N        2.520      19.459      11.041
  C        1.856      18.304      10.641
  O        2.344      17.179      10.737
  N        0.619      18.487      10.087
  C        0.012      19.688       9.864
  O       -1.067      19.788       9.296
  C        0.755      20.874      10.321
  C        1.960      20.710      10.871
  O        2.302      22.973      14.841
  O        4.401      24.402      15.222
  H        2.179      23.226      15.775
  H        6.811      19.269      10.219
  H        0.127      17.663       9.781
  H        0.299      21.844      10.165
  H        2.535      21.571      11.197
  H        3.973      18.194      11.819
  H        4.615      19.868       9.603
  H        4.693      21.832      10.954
  H        6.088      20.103      13.073
  H        4.943      21.650      14.644
  H        6.135      22.499      13.632
  P        6.962      22.354       9.631
  C        6.376      24.874       9.176
  O        6.111      23.687       9.900
  O        6.130      21.580       8.507
  O        8.398      22.583       9.308
  H        5.326      21.157       8.853
  H        5.707      25.645       9.498
  H        6.235      24.693       8.131
  H        7.386      25.181       9.352

 6  7  8  9  10  11  12  13  14  15  16  27  31  32  33  34  35 0
 6-311+G(2d,p)
 ****
 36  37 0
 6-311+G(2d,p)
 ****
 1  2  3  4  5  17  18  19  20  21  22  23  24  25 0
 3-21G
 ****
 26  28  29  30  38  39  40  41  42  43  44  45 0
 3-21G
 ****


