%nproc=1
%NoSave
%Mem=1900MB
#P OB98/GEN NMR

erre ene a

0 1
  C     -371.276    -352.783     391.427
  O     -372.491    -353.291     390.897
  H     -371.372    -351.700     391.545
  H     -370.452    -352.989     390.739
  H     -371.071    -353.229     392.404
  P     -372.562    -354.877     390.667
  C     -372.854    -354.999     388.084
  O     -373.474    -355.102     389.364
  C     -373.905    -355.151     386.990
  O     -374.255    -356.548     386.849
  C     -375.216    -354.439     387.284
  O     -375.144    -353.043     387.035
  C     -376.172    -355.173     386.349
  O     -376.119    -354.643     385.020
  C     -375.623    -356.605     386.383
  N     -379.668    -359.724     386.582
  C     -379.082    -359.075     385.559
  N     -377.994    -358.266     385.579
  C     -377.494    -358.195     386.832
  C     -377.984    -358.800     387.974
  C     -379.128    -359.608     387.820
  N     -379.747    -360.253     388.867
  N     -377.222    -358.447     389.078
  C     -376.289    -357.653     388.607
  N     -376.407    -357.470     387.251
  O     -373.493    -355.378     391.870
  O     -371.244    -355.579     390.652
  H     -376.924    -354.955     384.567
  H     -372.936    -355.737     392.584
  H     -379.551    -359.206     384.583
  H     -375.515    -357.181     389.193
  H     -375.617    -357.067     385.390
  H     -377.201    -355.088     386.703
  H     -375.526    -354.624     388.328
  H     -373.479    -354.806     386.033
  H     -372.093    -355.782     387.974
  H     -372.362    -354.018     388.009
  H     -380.593    -360.753     388.695
  H     -379.408    -360.078     389.809
  P     -375.283    -352.047     388.280
  C     -376.331    -350.468     386.484
  O     -375.580    -350.593     387.686
  O     -373.787    -351.929     388.848
  O     -376.237    -352.503     389.328
  H     -373.806    -351.854     389.823
  H     -376.434    -349.433     386.234
  H     -377.300    -350.899     386.623
  H     -375.824    -350.978     385.692

 6  7  8  9  10  11  12  13  14  15  25  28  32  33  34  35 0
 6-311+G(2d,p)
 ****
 36  37  40 0
 6-311+G(2d,p)
 ****
 1  2  3  4  5  16  17  18  19  20  21  22  23  24 0
 3-21G
 ****
 26  27  29  30  31  38  39 41  42  43  44  45  46  47  48 0
 3-21G
 ****


