%nproc=1
%NoSave
%Mem=1900MB
#P OB98/GEN NMR

erre ene a

0 1
  C     1213.886     283.904    -357.709
  O     1215.204     283.643    -358.236
  P     1216.062     282.364    -357.802
  C     1217.334     283.781    -356.064
  O     1216.625     282.569    -356.311
  C     1217.422     284.091    -354.566
  O     1218.135     283.056    -353.871
  C     1218.148     285.381    -354.203
  O     1217.332     286.508    -354.467
  C     1218.456     285.137    -352.741
  O     1217.323     285.460    -351.910
  C     1218.753     283.630    -352.704
  N     1220.177     283.337    -352.673
  C     1220.847     283.634    -351.480
  O     1220.239     284.163    -350.539
  N     1222.192     283.329    -351.376
  C     1222.810     282.853    -352.420
  N     1224.127     282.576    -352.246
  C     1222.161     282.613    -353.715
  C     1220.854     282.874    -353.769
  O     1217.102     281.984    -358.805
  O     1215.003     281.170    -357.630
  H     1217.667     285.439    -350.982
  H     1215.426     280.331    -357.859
  H     1222.738     282.254    -354.549
  H     1220.303     282.715    -354.694
  H     1218.268     283.161    -351.837
  H     1219.294     285.764    -352.392
  H     1219.079     285.438    -354.786
  H     1216.378     284.110    -354.175
  H     1224.544     282.747    -351.333
  H     1216.809     284.603    -356.564
  H     1224.718     282.195    -352.987
  H     1218.333     283.699    -356.492
  P     1217.696     287.484    -355.708
  C     1219.023     289.103    -354.234
  O     1219.043     288.225    -355.346
  O     1216.574     288.358    -356.165
  O     1218.127     286.462    -356.870
  H     1217.887     286.849    -357.725
  H     1220.047     289.218    -353.855
  H     1218.397     288.684    -353.438
  H     1218.640     290.068    -354.550
  H     1213.504     284.807    -358.136
  H     1213.941     284.008    -356.645
  H     1213.236     283.090    -357.955

 3  4  5  6  7  8  9  10  11  12  13  23  27  28  29  30  32 0
 6-311+G(2d,p)
 ****
 34  35 0
 6-311+G(2d,p)
 ****
 1  2  14  15  16  17  18  19  20  21  22  24  25  26 0
 3-21G
 ****
 31  33  36  37  38  39  40  41  42  43  44  45  46 0
 3-21G
 ****


