%nproc=1
%NoSave
%Mem=1900MB
#P OB98/GEN NMR

erre ene a

0 1
  C       91.416    -291.996    -118.537
  O       91.662    -293.363    -118.868
  P       90.926    -293.906    -120.193
  C       88.585    -294.849    -120.790
  O       89.423    -294.297    -119.783
  C       87.186    -295.145    -120.237
  O       87.225    -296.264    -119.299
  C       86.549    -293.961    -119.494
  O       85.141    -294.013    -119.760
  C       86.839    -294.301    -118.041
  O       86.050    -293.562    -117.124
  C       86.602    -295.806    -118.077
  N       85.432    -297.919    -113.582
  C       84.676    -297.282    -114.506
  N       85.067    -296.740    -115.679
  C       86.387    -296.918    -115.863
  C       87.288    -297.543    -115.015
  C       86.758    -298.063    -113.820
  N       87.519    -298.696    -112.861
  N       88.566    -297.509    -115.542
  C       88.446    -296.806    -116.659
  N       87.138    -296.501    -116.930
  O       91.633    -295.316    -120.459
  O       91.037    -292.981    -121.361
  H       86.238    -293.865    -116.211
  H       92.314    -295.229    -121.151
  H       83.620    -297.186    -114.263
  H       89.257    -296.493    -117.293
  H       85.535    -296.057    -118.137
  H       87.892    -294.078    -117.826
  H       86.938    -292.986    -119.811
  H       86.542    -295.450    -121.076
  H       89.021    -295.776    -121.177
  H       87.054    -299.031    -112.038
  H       88.514    -298.813    -112.996
  H       88.537    -294.155    -121.637
  P       84.431    -292.734    -120.421
  C       83.296    -290.698    -119.348
  O       84.317    -291.669    -119.223
  O       82.918    -293.261    -120.517
  O       84.995    -292.263    -121.716
  H       82.621    -293.632    -119.669
  H       83.274    -290.096    -118.438
  H       82.323    -291.183    -119.476
  H       83.508    -290.046    -120.201
  H       91.951    -291.743    -117.645
  H       90.368    -291.851    -118.378
  H       91.745    -291.370    -119.340

 3  4  5  6  7  8  9  10  11  12  22  25  29  30  31  32 0
 6-311+G(2d,p)
 ****
 33  36  37 0
 6-311+G(2d,p)
 ****
 1  2  13  14  15  16  17  18  19  20  21  23  24  26 0
 3-21G
 ****
 27  28  34  35  38  39  40  41  42  43  44  45  46  47  48 0
 3-21G
 ****


