%nproc=1
%NoSave
%Mem=1900MB
#P OB98/GEN NMR

erre ene a

0 1
  C      -46.638     281.755     -64.903
  O      -45.469     281.990     -64.144
  H      -46.912     280.698     -64.857
  H      -47.456     282.348     -64.484
  H      -46.482     282.055     -65.943
  P      -44.140     281.218     -64.600
  C      -42.763     283.323     -65.257
  O      -43.447     282.156     -65.703
  C      -43.061     284.482     -66.202
  O      -44.489     284.632     -66.373
  C      -42.560     285.835     -65.712
  O      -41.180     286.023     -65.973
  C      -43.414     286.769     -66.551
  O      -42.891     286.832     -67.891
  C      -44.769     286.049     -66.542
  N      -49.469     287.731     -65.420
  C      -48.886     287.399     -66.590
  N      -47.628     286.966     -66.804
  C      -46.948     286.884     -65.650
  C      -47.406     287.197     -64.380
  C      -48.741     287.634     -64.281
  N      -49.335     287.991     -63.091
  N      -46.407     287.022     -63.442
  C      -45.376     286.580     -64.133
  N      -45.650     286.490     -65.470
  O      -44.697     279.992     -65.469
  O      -43.237     280.774     -63.499
  H      -43.559     287.297     -68.430
  H      -44.023     279.287     -65.523
  H      -49.514     287.499     -67.473
  H      -44.415     286.314     -63.712
  H      -45.313     286.167     -67.482
  H      -43.437     287.791     -66.167
  H      -42.793     285.992     -64.650
  H      -42.632     284.239     -67.183
  H      -41.687     283.126     -65.250
  H      -50.223     288.461     -63.155
  H      -48.753     288.063     -62.270
  H      -43.090     283.563     -64.241
  P      -40.185     286.047     -64.715
  C      -38.469     284.406     -65.781
  O      -39.412     284.643     -64.739
  O      -41.175     285.907     -63.467
  O      -39.322     287.262     -64.622
  H      -40.787     286.307     -62.663
  H      -38.041     283.433     -65.660
  H      -37.695     285.144     -65.737
  H      -38.963     284.463     -66.729

 6  7  8  9  10  11  12  13  14  15  25  28  32  33  34  35 0
 6-311+G(2d,p)
 ****
 36  39  40 0
 6-311+G(2d,p)
 ****
 1  2  3  4  5  16  17  18  19  20  21  22  23  24 0
 3-21G
 ****
 26  27  29  30  31  37  38  41  42  43  44  45  46  47 0
 3-21G
 ****
 48 0
 3-21G
 ****


