%nproc=1
%NoSave
%Mem=1900MB
#P OB98/GEN NMR

erre ene a

0 1
  C     -639.093     116.001     282.441
  O     -639.038     115.410     283.747
  P     -638.553     116.342     284.958
  C     -637.017     114.572     286.131
  O     -638.214     115.339     286.162
  C     -637.157     113.347     287.038
  O     -637.441     113.752     288.399
  C     -638.288     112.412     286.653
  O     -637.960     111.646     285.501
  C     -638.448     111.605     287.934
  O     -637.452     110.571     287.999
  C     -638.178     112.670     289.021
  N     -639.389     113.147     289.668
  C     -639.755     112.486     290.834
  O     -639.117     111.540     291.301
  N     -640.888     112.941     291.450
  C     -641.700     113.948     291.006
  O     -642.701     114.315     291.598
  C     -641.291     114.572     289.733
  C     -640.172     114.154     289.133
  O     -639.927     117.026     285.387
  O     -637.466     117.285     284.569
  H     -640.696     116.437     285.295
  H     -637.617     109.976     287.235
  H     -641.161     112.480     292.310
  H     -641.918     115.357     289.334
  H     -639.860     114.602     288.195
  H     -637.516     112.260     289.793
  H     -639.427     111.121     288.007
  H     -639.202     112.990     286.463
  H     -636.197     112.809     287.036
  H     -636.174     115.183     286.475
  H     -636.809     114.277     285.097
  P     -639.183     111.164     284.578
  C     -638.233     108.904     283.667
  O     -638.547     110.264     283.419
  O     -639.564     112.533     283.831
  O     -640.306     110.546     285.337
  H     -638.788     113.027     283.518
  H     -638.154     108.385     282.707
  H     -639.015     108.420     284.262
  H     -637.280     108.834     284.187
  H     -639.430     115.272     281.734
  H     -638.118     116.343     282.163
  H     -639.772     116.828     282.452

 3  4  5  6  7  8  9  10  11  12  13  24  28  29  30  31  32 0
 6-311+G(2d,p)
 ****
 33  34 0
 6-311+G(2d,p)
 ****
 1  2  14  15  16  17  18  19  20  21  22  23  25  26  27 0
 3-21G
 ****
 35  36  37  38  39  40  41  42  43  44  45 0
 3-21G
 ****


