%nproc=1
%NoSave
%Mem=1900MB
#P OB98/GEN NMR

erre ene a

0 1
  C      302.506     177.984    -284.013
  O      301.154     178.367    -284.179
  H      302.623     177.550    -283.017
  H      303.157     178.859    -284.088
  H      302.792     177.237    -284.756
  P      300.684     178.947    -285.598
  C      299.801     176.899    -286.878
  O      299.460     178.030    -286.089
  C      298.770     176.686    -287.987
  O      299.378     175.902    -289.043
  C      297.509     175.952    -287.521
  O      296.382     176.516    -288.196
  C      297.731     174.531    -288.002
  O      296.505     173.832    -288.217
  C      298.542     174.751    -289.277
  N      298.922     170.786    -292.385
  C      298.015     171.829    -292.376
  N      297.048     171.803    -293.318
  N      298.050     172.811    -291.515
  C      299.080     172.721    -290.635
  C      300.040     171.742    -290.540
  C      299.982     170.649    -291.493
  O      300.746     169.692    -291.541
  N      300.900     171.985    -289.500
  C      300.457     173.108    -288.965
  N      299.349     173.588    -289.612
  O      301.770     179.122    -286.611
  O      299.980     180.335    -285.236
  H      295.990     174.353    -288.869
  H      300.582     181.082    -285.408
  H      298.842     170.052    -293.065
  H      300.895     173.612    -288.113
  H      297.903     174.957    -290.146
  H      298.316     173.976    -287.255
  H      296.968     171.087    -294.024
  H      297.359     176.005    -286.438
  H      296.386     172.569    -293.344
  H      298.521     177.664    -288.420
  H      299.826     176.020    -286.225
  H      300.797     177.046    -287.312
  P      295.089     176.917    -287.337
  C      295.952     179.342    -287.487
  O      294.816     178.487    -287.544
  O      295.086     176.452    -285.919
  O      293.889     176.247    -288.170
  H      293.170     176.009    -287.551
  H      295.644     180.355    -287.638
  H      296.647     179.063    -288.251
  H      296.420     179.251    -286.529

 6  7  8  9  10  11  12  13  14  15  26  29  33  34 0
 6-311+G(2d,p)
 ****
 36  38  39  40  41 0
 6-311+G(2d,p)
 ****
 1  2  3  4  5  16  17  18  19  20  21  22  23  24  25 0
 3-21G
 ****
 27  28  30  31  32  35  37  42  43  44  45  46  47 0
 3-21G
 ****
 48  49 0
 3-21G
 ****


