%nproc=1
%NoSave
%Mem=1900MB
#P OB98/GEN NMR

erre ene a

0 1
  C      239.949    -123.774     236.748
  O      240.708    -123.362     235.604
  P      241.738    -124.325     234.829
  C      243.999    -123.461     235.745
  O      243.116    -123.525     234.632
  C      244.568    -122.048     235.909
  O      243.873    -121.350     236.970
  C      246.033    -121.977     236.311
  O      246.904    -122.309     235.245
  C      246.143    -120.528     236.784
  O      246.365    -119.633     235.686
  C      244.748    -120.275     237.393
  N      244.771    -120.161     238.842
  C      244.394    -118.924     239.379
  O      244.139    -117.975     238.638
  N      244.329    -118.796     240.744
  C      244.711    -119.775     241.503
  N      244.607    -119.596     242.849
  C      245.245    -121.044     240.976
  C      245.244    -121.168     239.650
  O      241.191    -124.903     233.564
  O      242.108    -125.477     235.878
  H      242.367    -126.284     235.395
  H      247.117    -119.994     235.177
  H      245.593    -121.821     241.645
  H      245.606    -122.077     239.178
  H      244.311    -119.364     236.966
  H      246.969    -120.387     237.492
  H      246.208    -122.651     237.162
  H      244.404    -121.504     234.967
  H      244.226    -118.717     243.176
  H      244.829    -124.156     235.566
  H      244.856    -120.303     243.528
  H      243.470    -123.777     236.647
  P      248.430    -122.624     235.627
  C      249.219    -122.405     233.160
  O      249.148    -123.214     234.321
  O      248.322    -123.888     236.605
  O      249.153    -121.492     236.282
  H      248.973    -123.802     237.325
  H      250.097    -122.701     232.581
  H      249.301    -121.343     233.414
  H      248.325    -122.568     232.555
  H      239.339    -122.961     237.083
  H      240.616    -124.066     237.532
  H      239.325    -124.602     236.483

 3  4  5  6  7  8  9  10  11  12  13  24  27  28  29  30  32 0
 6-311+G(2d,p)
 ****
 34  35 0
 6-311+G(2d,p)
 ****
 1  2  14  15  16  17  18  19  20  21  22  23  25  26 0
 3-21G
 ****
 31  33  36  37  38  39  40  41  42  43  44  45  46 0
 3-21G
 ****


