%nproc=1
%NoSave
%Mem=1900MB
#P OB98/GEN NMR

erre ene a

0 1
  C     -170.452      61.149    -203.998
  O     -170.149      60.992    -202.628
  H     -170.311      60.190    -204.504
  H     -169.772      61.881    -204.441
  H     -171.488      61.471    -204.135
  P     -170.580      62.180    -201.642
  C     -171.686      60.432    -200.081
  O     -170.795      61.531    -200.187
  C     -171.530      59.750    -198.722
  O     -170.393      58.848    -198.781
  C     -171.289      60.725    -197.561
  O     -171.992      60.256    -196.407
  C     -169.792      60.630    -197.324
  O     -169.425      60.980    -195.990
  C     -169.523      59.173    -197.680
  N     -164.790      59.346    -195.954
  C     -165.990      59.529    -195.292
  N     -165.918      59.808    -193.972
  N     -167.157      59.446    -195.874
  C     -167.078      59.126    -197.189
  C     -165.955      58.926    -197.959
  C     -164.667      59.050    -197.308
  O     -163.572      58.922    -197.844
  N     -166.287      58.652    -199.262
  C     -167.608      58.688    -199.279
  N     -168.132      58.964    -198.044
  O     -172.067      62.530    -202.121
  O     -169.700      63.386    -201.671
  H     -168.476      60.753    -195.877
  H     -172.094      63.436    -202.478
  H     -163.920      59.435    -195.459
  H     -168.227      58.531    -200.152
  H     -169.747      58.491    -196.851
  H     -169.266      61.306    -198.011
  H     -165.057      59.838    -193.450
  H     -171.605      61.745    -197.788
  H     -166.787      59.908    -193.459
  H     -172.416      59.132    -198.536
  H     -171.461      59.714    -200.876
  H     -172.715      60.787    -200.202
  P     -172.950      61.306    -195.661
  C     -174.894      59.601    -195.509
  O     -174.031      60.481    -194.803
  O     -173.810      61.928    -196.858
  O     -172.214      62.365    -194.909
  H     -173.526      62.844    -197.031
  H     -175.557      59.121    -194.819
  H     -174.311      58.861    -196.017
  H     -175.464      60.158    -196.223

 6  7  8  9  10  11  12  13  14  15  26  29  33  34 0
 6-311+G(2d,p)
 ****
 36  38  39  40  41 0
 6-311+G(2d,p)
 ****
 1  2  3  4  5  16  17  18  19  20  21  22  23  24  25 0
 3-21G
 ****
 27  28  30  31  32  35  37  42  43  44  45  46  47 0
 3-21G
 ****
 48  49 0
 3-21G
 ****


