%nproc=1
%NoSave
%Mem=1900MB
#P OB98/GEN NMR

erre ene a

0 1
  C     -333.055     459.682    -137.555
  O     -334.436     459.340    -137.405
  P     -335.364     460.407    -136.643
  C     -335.422     459.238    -134.321
  O     -334.999     460.364    -135.082
  C     -334.979     459.389    -132.868
  O     -333.533     459.410    -132.750
  C     -335.453     460.682    -132.223
  O     -336.833     460.614    -131.904
  C     -334.527     460.757    -131.012
  O     -334.989     459.888    -129.962
  C     -333.205     460.217    -131.587
  N     -329.335     463.158    -130.001
  C     -330.057     462.204    -129.372
  N     -331.076     461.466    -129.867
  C     -331.321     461.787    -131.149
  C     -330.660     462.732    -131.920
  C     -329.624     463.445    -131.293
  N     -328.891     464.429    -131.922
  N     -331.188     462.777    -133.189
  C     -332.165     461.897    -133.181
  N     -332.275     461.257    -131.978
  O     -336.818     459.748    -136.714
  O     -335.341     461.766    -137.263
  H     -335.003     458.980    -130.319
  H     -337.382     460.244    -137.339
  H     -329.793     462.008    -128.339
  H     -332.819     461.681    -134.022
  H     -332.683     459.559    -130.881
  H     -334.450     461.763    -130.591
  H     -335.269     461.532    -132.890
  H     -335.356     458.526    -132.308
  H     -335.003     458.319    -134.747
  H     -328.226     464.944    -131.378
  H     -329.159     464.708    -132.858
  H     -336.508     459.149    -134.400
  P     -337.837     461.560    -132.728
  C     -337.548     463.347    -130.907
  O     -337.414     463.049    -132.283
  O     -339.209     461.330    -131.941
  O     -337.875     461.307    -134.195
  H     -339.082     461.377    -130.972
  H     -337.197     464.372    -130.740
  H     -336.949     462.659    -130.301
  H     -338.599     463.283    -130.613
  H     -332.547     458.896    -138.075
  H     -332.613     459.814    -136.589
  H     -332.971     460.591    -138.113

 3  4  5  6  7  8  9  10  11  12  22  25  29  30  31  32 0
 6-311+G(2d,p)
 ****
 33  36  37 0
 6-311+G(2d,p)
 ****
 1  2  13  14  15  16  17  18  19  20  21  23  24  26 0
 3-21G
 ****
 27  28  34  35  38  39  40  41  42  43  44  45  46  47  48 0
 3-21G
 ****


