%nproc=1
%NoSave
%Mem=1900MB
#P OB98/GEN NMR

erre ene a

0 1
  C      271.537    -407.161      90.834
  O      271.127    -405.850      90.499
  P      270.444    -404.850      91.537
  C      269.015    -403.960      89.552
  O      269.788    -403.635      90.700
  C      268.930    -402.802      88.533
  O      268.445    -401.615      89.191
  C      270.345    -402.463      88.022
  O      270.916    -403.206      86.965
  C      270.334    -400.947      87.809
  O      270.105    -400.593      86.441
  C      269.173    -400.477      88.691
  N      269.388    -395.791      90.613
  C      268.638    -396.258      89.551
  N      268.012    -395.320      88.809
  N      268.526    -397.532      89.253
  C      269.286    -398.338      90.036
  C      270.056    -397.985      91.120
  C      270.135    -396.584      91.473
  O      270.856    -396.118      92.347
  N      270.743    -399.062      91.630
  C      270.415    -400.057      90.831
  N      269.569    -399.661      89.822
  O      271.208    -404.535      92.787
  O      269.138    -405.695      91.971
  H      269.975    -399.635      86.402
  H      268.960    -405.494      92.914
  H      269.497    -394.787      90.756
  H      270.793    -401.072      90.909
  H      268.458    -399.887      88.104
  H      271.302    -400.514      88.092
  H      268.190    -394.335      88.916
  H      271.032    -402.621      88.860
  H      267.598    -395.616      87.922
  H      268.220    -403.025      87.740
  H      268.011    -404.236      89.894
  H      269.442    -404.836      89.057
  P      272.157    -404.215      87.078
  C      274.070    -402.795      86.141
  O      273.193    -403.880      85.901
  O      271.548    -405.631      86.620
  O      272.760    -404.326      88.440
  H      272.102    -406.356      86.980
  H      274.507    -402.463      85.196
  H      274.882    -403.122      86.813
  H      273.546    -401.952      86.612
  H      271.965    -407.632      89.974
  H      270.691    -407.726      91.166
  H      272.266    -407.118      91.616

 3  4  5  6  7  8  9  10  11  12  23  26  30  31 0
 6-311+G(2d,p)
 ****
 33  35  36  37  38 0
 6-311+G(2d,p)
 ****
 1  2  13  14  15  16  17  18  19  20  21  22  24  25 0
 3-21G
 ****
 27  28  29  32  34  39  40  41  42  43  44  45  46  47  48  49 0
 3-21G
 ****


