%nproc=1
%NoSave
%Mem=1900MB
#P OB98/GEN NMR

erre ene a

0 1
  C      144.430     -19.405      62.998
  O      143.599     -20.495      63.359
  P      143.346     -21.653      62.282
  C      140.978     -20.759      61.681
  O      142.276     -21.104      61.220
  C      140.010     -20.634      60.502
  O      138.639     -20.763      60.988
  C      140.105     -19.297      59.752
  O      139.830     -19.556      58.368
  C      138.964     -18.500      60.359
  O      138.555     -17.408      59.551
  C      137.916     -19.607      60.517
  N      136.832     -19.241      61.427
  C      135.794     -18.473      60.907
  O      135.739     -18.091      59.739
  N      134.829     -18.095      61.801
  C      134.843     -18.324      63.146
  O      134.006     -17.858      63.911
  C      135.964     -19.139      63.638
  C      136.893     -19.554      62.772
  O      142.530     -22.751      63.111
  O      144.584     -22.218      61.673
  H      138.590     -17.700      58.622
  H      143.123     -23.474      63.393
  H      134.062     -17.547      61.440
  H      135.995     -19.358      64.698
  H      137.741     -20.139      63.111
  H      137.496     -19.871      59.538
  H      139.274     -18.103      61.332
  H      141.075     -18.800      59.864
  H      140.189     -21.470      59.813
  H      141.025     -19.805      62.208
  H      140.628     -21.518      62.390
  P      140.918     -19.081      57.286
  C      139.503     -17.004      56.561
  O      140.715     -17.506      57.086
  O      140.307     -19.720      55.948
  O      142.307     -19.543      57.587
  H      139.343     -19.602      55.885
  H      138.648     -17.608      56.876
  H      139.557     -16.999      55.470
  H      139.361     -15.980      56.915
  H      144.499     -18.722      63.819
  H      144.012     -18.903      62.151
  H      145.406     -19.767      62.752

 3  4  5  6  7  8  9  10  11  12  13  23  28  29  30  31  32 0
 6-311+G(2d,p)
 ****
 33  34 0
 6-311+G(2d,p)
 ****
 1  2  14  15  16  17  18  19  20  21  22  24  25  26 0
 3-21G
 ****
 27  35  36  37  38  39  40  41  42  43  44  45 0
 3-21G
 ****


