%nproc=1
%NoSave
%Mem=1900MB
#P OB98/GEN NMR

erre ene a

0 1
  C       37.788      14.246     120.394
  O       39.147      14.641     120.459
  P       40.338      13.614     120.120
  C       40.073      12.808     122.564
  O       40.204      12.438     121.202
  C       39.749      11.581     123.420
  O       38.540      10.964     122.907
  C       40.849      10.510     123.430
  O       40.854       9.918     124.735
  C       40.361       9.515     122.394
  O       40.927       8.224     122.563
  C       38.845       9.583     122.619
  N       38.086       9.107     121.468
  C       37.754       7.751     121.425
  O       38.112       6.983     122.316
  N       37.019       7.288     120.362
  C       36.714       8.089     119.387
  N       35.932       7.597     118.386
  C       37.139       9.501     119.340
  C       37.794       9.941     120.411
  O       41.690      14.230     120.034
  O       39.862      12.887     118.779
  H       40.790       7.719     121.739
  H       40.095      13.393     117.961
  H       36.886      10.121     118.493
  H       38.123      10.968     120.477
  H       38.568       9.008     123.509
  H       40.628       9.871     121.392
  H       41.840      10.919     123.216
  H       39.537      11.920     124.442
  H       35.520       6.682     118.538
  H       39.251      13.524     122.650
  H       35.399       8.218     117.788
  H       40.992      13.296     122.904
  P       42.242       9.351     125.308
  C       41.466       6.879     125.154
  O       42.420       7.849     124.780
  O       41.880       9.117     126.856
  O       43.426      10.255     125.194
  H       42.701       9.163     127.385
  H       41.743       5.922     124.698
  H       40.473       7.159     124.795
  H       41.449       6.758     126.240
  H       37.163      15.074     120.655
  H       37.618      13.441     121.078
  H       37.557      13.925     119.400

 3  4  5  6  7  8  9  10  11  12  13  23  27  28  29  30  32 0
 6-311+G(2d,p)
 ****
 34  35 0
 6-311+G(2d,p)
 ****
 1  2  14  15  16  17  18  19  20  21  22  24  25  26 0
 3-21G
 ****
 31  33  36  37  38  39  40  41  42  43  44  45  46 0
 3-21G
 ****


