%nproc=1
%NoSave
%Mem=1900MB
#P OB98/GEN NMR

erre ene a

0 1
  C       -8.477     -15.335       2.258
  O       -7.067     -15.383       2.190
  H       -8.800     -14.296       2.150
  H       -8.824     -15.713       3.224
  H       -8.914     -15.928       1.450
  P       -6.391     -16.819       2.434
  C       -6.424     -17.367      -0.117
  O       -6.897     -17.689       1.182
  C       -5.749     -18.586      -0.736
  O       -6.632     -19.727      -0.703
  C       -5.368     -18.409      -2.202
  O       -4.181     -17.654      -2.377
  C       -5.182     -19.857      -2.612
  O       -3.927     -20.346      -2.105
  C       -6.372     -20.528      -1.888
  N       -7.573     -20.619      -2.720
  C       -7.538     -21.540      -3.774
  O       -6.534     -22.219      -3.979
  N       -8.635     -21.646      -4.596
  C       -9.678     -20.907      -4.380
  N      -10.729     -21.044      -5.233
  C       -9.763     -19.938      -3.273
  C       -8.690     -19.846      -2.493
  O       -7.236     -17.433       3.647
  O       -4.915     -16.822       2.648
  H       -3.900     -21.302      -2.289
  H       -6.976     -18.374       3.794
  H      -10.651     -19.337      -3.140
  H       -8.679     -19.152      -1.660
  H       -6.106     -21.536      -1.548
  H       -5.169     -19.998      -3.694
  H       -6.192     -17.983      -2.785
  H       -4.872     -18.834      -0.124
  H      -10.618     -21.671      -6.019
  H       -5.709     -16.542      -0.029
  H      -11.502     -20.391      -5.254
  H       -7.257     -17.051      -0.752
  P       -3.880     -17.068      -3.842
  C       -5.183     -14.890      -3.295
  O       -5.033     -16.001      -4.167
  O       -4.236     -18.297      -4.801
  O       -2.480     -16.581      -4.051
  H       -3.607     -18.358      -5.545
  H       -5.986     -14.272      -3.639
  H       -4.276     -14.322      -3.282
  H       -5.400     -15.239      -2.307

 6  7  8  9  10  11  12  13  14  15  16  26  30  31  32  33  35 0
 6-311+G(2d,p)
 ****
 37  38 0
 6-311+G(2d,p)
 ****
 1  2  3  4  5  17  18  19  20  21  22  23  24  25 0
 3-21G
 ****
 27  28  29  34  36  39  40  41  42  43  44  45  46 0
 3-21G
 ****


