%nproc=1
%NoSave
%Mem=1900MB
#P OB98/GEN NMR

erre ene a

0 1
  C      223.988      41.314     485.644
  O      222.774      41.690     486.262
  H      224.816      41.597     486.300
  H      224.099      41.842     484.695
  H      224.030      40.236     485.477
  P      221.395      41.138     485.657
  C      220.472      41.294     488.061
  O      220.244      41.576     486.685
  C      219.683      42.255     488.955
  O      220.277      43.584     488.856
  C      218.200      42.386     488.567
  O      217.469      42.657     489.771
  C      218.221      43.614     487.677
  O      216.934      44.164     487.521
  C      219.245      44.482     488.413
  N      219.775      45.558     487.576
  C      220.025      46.774     488.207
  O      219.791      46.972     489.401
  N      220.507      47.777     487.409
  C      220.704      47.697     486.062
  O      221.106      48.640     485.388
  C      220.379      46.404     485.443
  C      219.936      45.407     486.212
  O      221.383      39.693     485.282
  O      221.111      42.081     484.395
  H      216.516      44.303     488.402
  H      220.616      41.590     483.712
  H      220.703      48.658     487.854
  H      220.511      46.313     484.369
  H      219.693      44.443     485.785
  H      218.794      44.947     489.304
  H      218.589      43.359     486.679
  H      217.802      41.501     488.069
  H      219.792      41.932     489.999
  H      221.546      41.407     488.252
  H      220.181      40.262     488.277
  P      216.817      41.488     490.652
  C      217.305      43.093     492.612
  O      216.442      42.082     492.099
  O      217.628      40.231     490.702
  O      215.389      41.212     489.984
  H      215.124      40.288     490.139
  H      216.955      43.407     493.573
  H      217.311      43.929     491.944
  H      218.297      42.702     492.704

 6  7  8  9  10  11  12  13  14  15  16  26  31  32  33  34  35 0
 6-311+G(2d,p)
 ****
 36  37 0
 6-311+G(2d,p)
 ****
 1  2  3  4  5  17  18  19  20  21  22  23  24  25 0
 3-21G
 ****
 27  28  29  30  38  39  40  41  42  43  44  45 0
 3-21G
 ****


