%nproc=1
%NoSave
%Mem=1900MB
#P OB98/GEN NMR

erre ene a

0 1
  C      746.607    -454.262      45.770
  O      747.304    -453.885      46.964
  P      748.497    -452.822      46.794
  C      750.564    -454.354      47.237
  O      749.794    -453.633      46.281
  C      751.859    -454.867      46.613
  O      751.609    -455.955      45.700
  C      752.608    -453.830      45.794
  O      753.361    -452.940      46.615
  C      753.533    -454.719      44.962
  O      754.701    -455.063      45.745
  C      752.667    -455.966      44.724
  N      753.398    -457.075      39.821
  C      754.266    -457.175      40.891
  N      755.496    -457.673      40.632
  N      753.954    -456.823      42.118
  C      752.676    -456.386      42.234
  C      751.735    -456.228      41.258
  C      752.102    -456.591      39.904
  O      751.383    -456.477      38.903
  N      750.546    -455.748      41.770
  C      750.769    -455.633      43.064
  N      752.068    -455.993      43.396
  O      748.875    -452.438      48.300
  O      748.132    -451.623      45.987
  H      754.980    -454.246      46.213
  H      749.257    -451.550      48.344
  H      753.692    -457.346      38.901
  H      750.046    -455.306      43.789
  H      753.229    -456.897      44.862
  H      753.893    -454.220      44.058
  H      755.785    -458.037      39.730
  H      751.924    -453.285      45.116
  H      756.141    -457.783      41.414
  H      752.503    -455.227      47.419
  H      749.981    -455.208      47.608
  H      750.768    -453.703      48.096
  P      752.739    -451.486      46.871
  C      753.190    -450.574      44.489
  O      752.219    -450.956      45.459
  O      754.027    -450.600      47.184
  O      751.738    -451.422      47.990
  H      753.806    -449.860      47.775
  H      754.018    -451.301      44.452
  H      753.577    -449.596      44.724
  H      752.707    -450.550      43.512
  H      745.841    -454.969      46.012
  H      747.295    -454.704      45.080
  H      746.164    -453.395      45.327

 3  4  5  6  7  8  9  10  11  12  23  26  30  31  33  0
 6-311+G(2d,p)
 ****
 35  36  37  38 0
 6-311+G(2d,p)
 ****
 1  2  13  14  15  16  17  18  19  20  21  22  24  25  27  28  29 0
 3-21G
 ****
 32  34  39  40  41  42  43  44  45  46  47  48  49 0
 3-21G
 ****


