%nproc=1
%NoSave
%Mem=1900MB
#P OB98/GEN NMR

erre ene a

0 1
  C      192.934      29.975      65.551
  O      192.118      30.684      66.489
  P      190.578      30.914      66.103
  C      189.374      32.298      64.227
  O      190.597      31.878      64.821
  C      189.480      33.753      63.778
  O      189.434      34.645      64.919
  C      190.779      34.089      63.058
  O      190.786      33.574      61.736
  C      190.777      35.611      63.153
  O      189.925      36.175      62.142
  C      190.158      35.843      64.549
  N      191.148      36.199      65.559
  C      191.720      37.462      65.427
  O      191.440      38.236      64.510
  N      192.644      37.803      66.380
  C      193.063      37.008      67.409
  O      193.890      37.371      68.238
  C      192.462      35.666      67.466
  C      191.547      35.328      66.553
  O      190.093      31.851      67.301
  O      189.819      29.639      65.947
  H      190.782      32.470      67.605
  H      189.870      37.133      62.329
  H      193.059      38.718      66.309
  H      192.791      35.001      68.256
  H      191.090      34.342      66.579
  H      189.416      36.647      64.504
  H      191.776      36.042      63.015
  H      191.630      33.685      63.616
  H      188.621      33.975      63.132
  H      188.557      32.204      64.949
  H      189.148      31.639      63.383
  P      191.734      32.303      61.457
  C      194.081      32.017      60.340
  O      192.952      32.836      60.562
  O      190.833      31.464      60.429
  O      192.117      31.557      62.694
  H      190.425      32.020      59.742
  H      194.613      32.391      59.459
  H      193.796      30.979      60.162
  H      194.746      32.074      61.205
  H      193.930      29.895      65.934
  H      192.951      30.504      64.621
  H      192.531      28.996      65.397

 3  4  5  6  7  8  9  10  11  12  13  24  28  29  30  31  32 0
 6-311+G(2d,p)
 ****
 33  34 0
 6-311+G(2d,p)
 ****
 1  2  14  15  16  17  18  19  20  21  22  23  25  26  27 0
 3-21G
 ****
 35  36  37  38  39  40  41  42  43  44  45 0
 3-21G
 ****


