%nproc=1
%NoSave
%Mem=1900MB
#P OB98/GEN NMR

erre ene a

0 1
  C      402.531     681.208     159.834
  O      403.047     681.090     158.523
  P      402.844     682.251     157.449
  C      405.302     683.116     157.803
  O      403.919     683.396     157.734
  C      405.978     683.617     156.518
  O      405.746     685.032     156.355
  C      407.480     683.382     156.544
  O      407.811     682.158     155.899
  C      408.022     684.608     155.827
  O      407.933     684.441     154.403
  C      407.037     685.704     156.299
  N      407.267     686.340     157.613
  C      408.193     687.374     157.721
  O      408.823     687.823     156.774
  N      408.391     687.862     158.993
  C      407.735     687.450     160.112
  O      408.087     687.722     161.256
  C      406.584     686.560     159.889
  C      406.430     686.037     158.680
  O      401.465     682.927     157.901
  O      402.820     681.817     156.012
  H      408.317     685.235     153.995
  H      400.727     682.591     157.357
  H      409.161     688.520     159.099
  H      405.950     686.321     160.731
  H      405.614     685.344     158.489
  H      406.958     686.510     155.560
  H      409.077     684.767     156.056
  H      407.851     683.394     157.577
  H      405.529     683.104     155.660
  H      405.456     682.037     157.918
  H      405.748     683.603     158.679
  P      409.062     681.308     156.419
  C      407.749     679.591     157.797
  O      408.602     680.712     157.843
  O      410.369     682.011     156.398
  O      409.061     680.034     155.442
  H      409.714     680.173     154.718
  H      407.663     679.188     158.813
  H      408.144     678.826     157.138
  H      406.756     679.908     157.461
  H      402.773     680.329     160.393
  H      401.468     681.321     159.790
  H      402.961     682.064     160.311

 3  4  5  6  7  8  9  10  11  12  13  23  28  29  30  31  32 0
 6-311+G(2d,p)
 ****
 33  34 0
 6-311+G(2d,p)
 ****
 1  2  14  15  16  17  18  19  20  21  22  24  25  26  27 0
 3-21G
 ****
 35  36  37  38  39  40  41  42  43  44  45 0
 3-21G
 ****


