%nproc=1
%NoSave
%Mem=1900MB
#P OB98/GEN NMR

erre ene a

0 1
  C     -329.243     -78.764     549.835
  O     -329.930     -77.663     550.420
  P     -330.226     -77.735     551.993
  C     -330.433     -75.944     553.867
  O     -329.981     -76.260     552.561
  C     -330.839     -74.479     553.961
  O     -329.686     -73.624     553.793
  C     -331.826     -74.044     552.890
  O     -333.139     -74.492     553.210
  C     -331.673     -72.525     552.924
  O     -332.521     -71.937     553.921
  C     -330.169     -72.354     553.295
  N     -329.365     -71.890     552.180
  C     -329.069     -70.518     552.182
  O     -329.498     -69.795     553.085
  N     -328.329     -69.992     551.146
  C     -327.919     -70.787     550.190
  N     -327.189     -70.223     549.199
  C     -328.232     -72.228     550.147
  C     -328.969     -72.700     551.158
  O     -328.978     -78.572     552.566
  O     -331.537     -78.361     552.355
  H     -332.232     -71.008     553.995
  H     -329.219     -79.032     553.393
  H     -327.866     -72.835     549.325
  H     -329.232     -73.757     551.194
  H     -330.054     -71.645     554.122
  H     -331.935     -72.064     551.966
  H     -331.524     -74.429     551.911
  H     -331.251     -74.291     554.970
  H     -326.989     -69.224     549.248
  H     -329.613     -76.132     554.586
  H     -326.805     -70.742     548.415
  H     -331.266     -76.602     554.128
  P     -334.327     -74.089     552.215
  C     -336.320     -75.336     551.202
  O     -335.135     -75.437     551.975
  O     -333.552     -73.910     550.825
  O     -335.133     -72.868     552.563
  H     -334.160     -73.559     550.147
  H     -336.689     -76.338     550.973
  H     -336.122     -74.819     550.261
  H     -337.087     -74.784     551.760
  H     -329.112     -78.587     548.788
  H     -329.815     -79.657     549.977
  H     -328.286     -78.875     550.300

 3  4  5  6  7  8  9  10  11  12  13  21  23  27  28  29  30  32 0
 6-311+G(2d,p)
 ****
 34  35 0
 6-311+G(2d,p)
 ****
 1  2  14  15  16  17  18  19  20  22  24  25  26 0
 3-21G
 ****
 31  33  36  37  38  39  40  41  42  43  44  45  46 0
 3-21G
 ****


