%nproc=1
%NoSave
%Mem=1900MB
#P OB98/GEN NMR

erre ene a

0 1
  C      -64.109      72.871    -187.089
  O      -65.330      73.087    -186.413
  H      -63.990      71.798    -187.265
  H      -63.276      73.213    -186.468
  H      -64.092      73.386    -188.052
  P      -65.890      74.582    -186.278
  C      -68.314      73.716    -186.066
  O      -67.268      74.467    -185.463
  C      -68.198      72.243    -185.673
  O      -68.290      72.151    -184.218
  C      -69.313      71.359    -186.269
  O      -68.771      70.062    -186.541
  C      -70.289      71.282    -185.110
  O      -71.166      70.191    -185.231
  C      -69.331      71.201    -183.924
  N      -70.011      71.489    -182.666
  C      -70.383      70.398    -181.889
  O      -70.180      69.228    -182.212
  N      -71.076      70.684    -180.743
  C      -71.517      71.919    -180.367
  O      -72.201      72.108    -179.371
  C      -71.140      73.032    -181.256
  C      -70.410      72.770    -182.343
  O      -65.980      75.364    -187.546
  O      -64.921      75.271    -185.204
  H      -70.660      69.368    -185.364
  H      -64.957      76.243    -185.291
  H      -71.343      69.904    -180.164
  H      -71.489      74.020    -180.995
  H      -70.130      73.562    -183.030
  H      -68.868      70.208    -183.862
  H      -70.893      72.194    -185.066
  H      -69.756      71.778    -187.176
  H      -67.206      71.871    -185.954
  H      -68.225      73.821    -187.154
  H      -69.281      74.117    -185.747
  P      -68.637      69.498    -188.037
  C      -66.614      67.932    -187.802
  O      -68.019      68.012    -188.026
  O      -67.954      70.433    -188.985
  O      -70.151      69.260    -188.505
  H      -70.268      69.619    -189.407
  H      -66.309      66.907    -187.814
  H      -66.379      68.363    -186.851
  H      -66.099      68.467    -188.573

 6  7  8  9  10  11  12  13  14  15  16  26  31  32  33  34  35 0
 6-311+G(2d,p)
 ****
 36  37 0
 6-311+G(2d,p)
 ****
 1  2  3  4  5  17  18  19  20  21  22  23  24  25 0
 3-21G
 ****
 27  28  29  30  38  39  40  41  42  43  44  45 0
 3-21G
 ****


