%nproc=1
%NoSave
%Mem=1900MB
#P OB98/GEN NMR

erre ene a

0 1
  C      688.950    -446.831    -351.843
  O      690.198    -447.200    -351.242
  P      690.201    -448.381    -350.160
  C      691.944    -450.119    -349.291
  O      691.713    -448.866    -349.925
  C      693.405    -450.545    -349.457
  O      693.754    -450.722    -350.845
  C      694.400    -449.530    -348.915
  O      694.562    -449.655    -347.509
  C      695.669    -449.951    -349.626
  O      696.258    -451.092    -348.961
  C      695.153    -450.364    -351.010
  N      698.327    -447.743    -354.061
  C      698.550    -448.722    -353.153
  N      697.647    -449.352    -352.367
  C      696.417    -448.907    -352.601
  C      696.033    -447.922    -353.492
  C      697.053    -447.329    -354.255
  N      696.821    -446.333    -355.180
  N      694.665    -447.720    -353.454
  C      694.228    -448.576    -352.555
  N      695.245    -449.307    -352.009
  O      689.544    -449.608    -350.949
  O      689.433    -448.072    -348.920
  H      695.517    -451.659    -348.675
  H      689.014    -450.152    -350.344
  H      699.581    -449.032    -353.031
  H      693.194    -448.710    -352.277
  H      695.669    -451.238    -351.415
  H      696.439    -449.171    -349.638
  H      694.126    -448.514    -349.209
  H      693.537    -451.501    -348.937
  H      691.281    -450.877    -349.719
  H      697.598    -445.971    -355.712
  H      695.867    -446.031    -355.342
  H      691.675    -450.034    -348.228
  P      694.312    -448.340    -346.615
  C      693.091    -448.097    -344.339
  O      693.960    -448.865    -345.151
  O      692.919    -447.778    -347.190
  O      695.405    -447.326    -346.701
  H      692.900    -446.802    -347.106
  H      692.716    -448.732    -343.529
  H      692.242    -447.721    -344.923
  H      693.640    -447.252    -343.912
  H      689.111    -446.034    -352.539
  H      688.270    -446.509    -351.083
  H      688.538    -447.675    -352.356

 3  4  5  6  7  8  9  10  11  12  22  25  29  30  31  32 0
 6-311+G(2d,p)
 ****
 33  36  37 0
 6-311+G(2d,p)
 ****
 1  2  13  14  15  16  17  18  19  20  21  23  24  26 0
 3-21G
 ****
 27  28  34  35  38  39  40  41  42  43  44  45  46  47  48 0
 3-21G
 ****


