%nproc=1
%NoSave
%Mem=1900MB
#P OB98/GEN NMR

erre ene a

0 1
  C     -926.027    -940.553     856.026
  O     -925.184    -941.535     856.596
  H     -926.611    -941.013     855.221
  H     -925.431    -939.741     855.610
  H     -926.721    -940.165     856.774
  P     -924.339    -941.173     857.905
  C     -926.124    -942.179     859.464
  O     -924.770    -942.216     859.046
  C     -926.692    -943.594     859.531
  O     -926.553    -944.260     858.248
  C     -925.962    -944.500     860.529
  O     -926.320    -944.196     861.858
  C     -926.392    -945.877     860.025
  O     -927.689    -946.222     860.537
  C     -926.437    -945.674     858.490
  N     -925.250    -946.236     857.837
  C     -925.207    -947.614     857.743
  O     -926.092    -948.364     858.162
  N     -924.072    -948.139     857.183
  C     -922.936    -947.415     856.856
  O     -921.870    -947.937     856.590
  C     -923.082    -945.956     856.906
  C     -924.202    -945.438     857.412
  O     -924.371    -939.741     858.315
  O     -922.849    -941.642     857.540
  H     -922.329    -940.864     857.295
  H     -928.274    -945.481     860.325
  H     -923.997    -949.138     857.160
  H     -922.252    -945.355     856.599
  H     -924.326    -944.351     857.493
  H     -927.330    -946.149     858.074
  H     -925.702    -946.659     860.345
  H     -924.882    -944.404     860.385
  H     -927.765    -943.543     859.776
  H     -926.710    -941.593     858.730
  H     -926.201    -941.692     860.439
  P     -925.480    -944.841     863.072
  C     -923.151    -943.763     863.082
  O     -924.469    -943.732     863.626
  O     -924.866    -946.173     862.797
  O     -926.575    -944.949     864.261
  H     -926.536    -945.851     864.632
  H     -922.565    -942.983     863.521
  H     -923.199    -943.620     862.023
  H     -922.700    -944.710     863.294

 6  7  8  9  10  11  12  13  14  15  16  27  31  32  33  34  35 0
 6-311+G(2d,p)
 ****
 36  37 0
 6-311+G(2d,p)
 ****
 1  2  3  4  5  17  18  19  20  21  22  23  24  25 0
 3-21G
 ****
 26  28  29  30  38  39  40  41  42  43  44  45 0
 3-21G
 ****


