%nproc=1
%NoSave
%Mem=1900MB
#P OB98/GEN NMR

erre ene a

0 1
  C      123.704      20.755    -163.324
  O      124.579      20.910    -162.227
  H      122.962      21.557    -163.296
  H      123.187      19.795    -163.259
  H      124.258      20.817    -164.264
  P      125.774      19.844    -162.085
  C      124.185      17.786    -162.181
  O      125.231      18.514    -162.809
  C      124.198      16.325    -162.644
  O      124.077      16.284    -164.086
  C      125.478      15.582    -162.259
  O      125.140      14.274    -161.788
  C      126.264      15.499    -163.556
  O      127.155      14.384    -163.580
  C      125.146      15.469    -164.605
  N      125.605      15.962    -165.903
  C      126.275      15.048    -166.722
  O      126.465      13.893    -166.336
  N      126.760      15.472    -167.933
  C      126.641      16.718    -168.271
  N      127.162      17.083    -169.474
  C      125.985      17.729    -167.418
  C      125.490      17.286    -166.264
  O      125.737      19.470    -160.531
  O      127.106      20.315    -162.565
  H      127.691      14.409    -162.757
  H      126.552      18.984    -160.257
  H      125.926      18.759    -167.736
  H      124.994      17.957    -165.571
  H      124.762      14.448    -164.734
  H      126.863      16.409    -163.676
  H      126.054      16.093    -161.490
  H      123.310      15.825    -162.240
  H      127.613      16.365    -170.028
  H      123.227      18.244    -162.441
  H      127.154      18.031    -169.825
  H      124.320      17.826    -161.095
  P      125.188      14.069    -160.195
  C      127.658      13.426    -159.737
  O      126.671      14.445    -159.703
  O      125.117      12.480    -160.022
  O      124.090      14.772    -159.469
  H      124.209      12.202    -159.801
  H      128.588      13.819    -159.384
  H      127.776      13.078    -160.742
  H      127.353      12.613    -159.111

 6  7  8  9  10  11  12  13  14  15  16  26  30  31  32  33  35 0
 6-311+G(2d,p)
 ****
 37  38 0
 6-311+G(2d,p)
 ****
 1  2  3  4  5  17  18  19  20  21  22  23  24  25 0
 3-21G
 ****
 27  28  29  34  36  39  40  41  42  43  44  45  46 0
 3-21G
 ****


