%nproc=1
%NoSave
%Mem=1900MB
#P OB98/GEN NMR

erre ene a

0 1
  C     -318.135     330.431     509.199
  O     -317.415     330.674     510.413
  P     -315.827     330.883     510.390
  C     -315.190     328.403     510.358
  O     -315.141     329.636     509.639
  C     -314.681     327.205     509.543
  O     -315.049     325.954     510.179
  C     -315.177     327.141     508.094
  O     -314.112     326.559     507.330
  C     -316.359     326.190     508.199
  O     -316.728     325.638     506.945
  C     -315.825     325.182     509.236
  N     -316.897     324.440     509.893
  C     -317.323     323.265     509.273
  O     -316.839     322.915     508.201
  N     -318.316     322.523     509.871
  C     -318.907     322.978     510.935
  N     -319.896     322.212     511.459
  C     -318.557     324.263     511.575
  C     -317.546     324.922     511.009
  O     -315.218     331.219     511.719
  O     -315.610     332.095     509.357
  H     -317.272     324.841     507.110
  H     -314.813     332.596     509.608
  H     -319.090     324.614     512.437
  H     -317.198     325.880     511.404
  H     -315.152     324.465     508.758
  H     -317.228     326.718     508.607
  H     -315.477     328.116     507.688
  H     -313.577     327.248     509.552
  H     -320.132     321.353     510.983
  H     -316.232     328.215     510.653
  H     -320.496     322.522     512.207
  H     -314.607     328.497     511.281
  P     -313.195     327.430     506.359
  C     -314.486     326.958     504.195
  O     -314.132     327.937     505.157
  O     -311.935     326.766     505.929
  O     -312.885     328.779     507.177
  H     -312.117     329.231     506.782
  H     -315.273     327.353     503.561
  H     -314.847     326.035     504.675
  H     -313.606     326.732     503.572
  H     -319.176     330.319     509.418
  H     -317.769     329.537     508.740
  H     -317.998     331.256     508.532

 3  4  5  6  7  8  9  10  11  12  13  23  27  28  29  30  32 0
 6-311+G(2d,p)
 ****
 34  35 0
 6-311+G(2d,p)
 ****
 1  2  14  15  16  17  18  19  20  21  22  24  25  26 0
 3-21G
 ****
 31  33  36  37  38  39  40  41  42  43  44  45  46 0
 3-21G
 ****


