%nproc=1
%NoSave
%Mem=1900MB
#P OB98/GEN NMR

erre ene a

0 1
  C      -79.223    -412.403    -266.943
  O      -79.556    -413.054    -268.173
  P      -78.348    -413.359    -269.186
  C      -77.871    -412.569    -271.607
  O      -78.323    -412.208    -270.310
  C      -77.747    -411.335    -272.517
  O      -79.064    -410.803    -272.844
  C      -76.948    -410.186    -271.894
  O      -76.255    -409.518    -272.957
  C      -78.025    -409.266    -271.358
  O      -77.528    -407.945    -271.144
  C      -79.078    -409.407    -272.455
  N      -82.370    -405.511    -272.159
  C      -81.121    -405.604    -272.669
  N      -80.300    -406.677    -272.690
  C      -80.912    -407.750    -272.142
  C      -82.174    -407.804    -271.577
  C      -82.919    -406.615    -271.595
  N      -84.186    -406.509    -271.054
  N      -82.425    -409.070    -271.082
  C      -81.334    -409.759    -271.336
  N      -80.401    -409.014    -272.007
  O      -78.859    -414.651    -269.986
  O      -77.042    -413.620    -268.508
  H      -78.221    -407.428    -270.686
  H      -78.356    -415.439    -269.701
  H      -80.724    -404.693    -273.114
  H      -81.163    -410.788    -271.058
  H      -78.848    -408.803    -273.344
  H      -78.401    -409.651    -270.403
  H      -76.234    -410.496    -271.123
  H      -77.279    -411.648    -273.461
  H      -78.564    -413.277    -272.064
  H      -84.644    -405.609    -271.082
  H      -84.585    -407.313    -270.588
  H      -76.913    -413.096    -271.524
  P      -74.653    -409.589    -272.924
  C      -72.785    -408.251    -271.723
  O      -74.168    -408.413    -271.943
  O      -74.219    -409.072    -274.378
  O      -74.105    -410.948    -272.623
  H      -73.349    -409.437    -274.620
  H      -72.559    -407.177    -271.700
  H      -72.178    -408.720    -272.500
  H      -72.521    -408.678    -270.755
  H      -80.111    -412.259    -266.364
  H      -78.776    -411.454    -267.152
  H      -78.533    -413.009    -266.394

 3  4  5  6  7  8  9  10  11  12  22  25  29  30  31  32 0
 6-311+G(2d,p)
 ****
 33  36  37 0
 6-311+G(2d,p)
 ****
 1  2  13  14  15  16  17  18  19  20  21  23  24  26 0
 3-21G
 ****
 27  28  34  35  38  39  40  41  42  43  44  45  46  47  48 0
 3-21G
 ****


