%nproc=1
%NoSave
%Mem=1900MB
#P OB98/GEN NMR

erre ene a

0 1
  C     -254.299    -457.562    -219.167
  O     -254.051    -456.415    -219.998
  P     -253.049    -456.553    -221.248
  C     -253.258    -457.092    -223.802
  O     -253.915    -456.796    -222.575
  C     -254.289    -457.318    -224.914
  O     -255.184    -458.401    -224.568
  C     -255.198    -456.122    -225.178
  O     -254.535    -455.109    -225.920
  C     -256.348    -456.781    -225.936
  O     -256.024    -456.936    -227.327
  C     -256.436    -458.154    -225.244
  N     -257.567    -458.253    -224.322
  C     -258.829    -458.341    -224.896
  O     -259.026    -458.294    -226.108
  N     -259.881    -458.464    -224.020
  C     -259.788    -458.432    -222.653
  O     -260.772    -458.523    -221.920
  C     -258.441    -458.253    -222.107
  C     -257.408    -458.166    -222.950
  O     -252.410    -458.003    -221.000
  O     -251.980    -455.513    -221.340
  H     -255.163    -457.395    -227.364
  H     -251.513    -458.041    -221.389
  H     -260.799    -458.563    -224.415
  H     -258.330    -458.201    -221.027
  H     -256.399    -458.037    -222.561
  H     -256.535    -458.950    -225.994
  H     -257.274    -456.195    -225.884
  H     -255.572    -455.726    -224.224
  H     -253.746    -457.601    -225.831
  H     -252.661    -458.005    -223.679
  H     -252.586    -456.268    -224.059
  P     -254.104    -453.790    -225.112
  C     -253.038    -453.416    -222.740
  O     -253.507    -454.325    -223.718
  O     -255.538    -453.175    -224.746
  O     -253.219    -452.876    -225.902
  H     -256.202    -453.868    -224.581
  H     -253.614    -452.485    -222.754
  H     -251.985    -453.194    -222.940
  H     -253.128    -453.872    -221.759
  H     -254.984    -457.297    -218.388
  H     -253.379    -457.895    -218.735
  H     -254.719    -458.348    -219.760

 3  4  5  6  7  8  9  10  11  12  13  23  28  29  30  31  32 0
 6-311+G(2d,p)
 ****
 33  34 0
 6-311+G(2d,p)
 ****
 1  2  14  15  16  17  18  19  20  21  22  24  25  26 0
 3-21G
 ****
 27  35  36  37  38  39  40  41  42  43  44  45 0
 3-21G
 ****


