%nproc=1
%NoSave
%Mem=1900MB
#P OB98/GEN NMR

erre ene a

0 1
  C      -68.319     683.878     310.894
  O      -69.108     683.776     309.702
  P      -69.875     685.085     309.179
  C      -69.943     683.895     306.867
  O      -70.605     684.739     307.791
  C      -70.965     683.155     305.985
  O      -71.629     682.104     306.717
  C      -72.067     684.054     305.462
  O      -71.662     684.780     304.301
  C      -73.126     683.014     305.084
  O      -72.808     682.432     303.807
  C      -72.967     681.969     306.201
  N      -77.712     680.984     307.895
  C      -77.097     680.678     306.733
  N      -75.843     681.003     306.354
  C      -75.205     681.676     307.318
  C      -75.702     682.055     308.557
  C      -77.034     681.670     308.839
  N      -77.662     681.978     310.027
  N      -74.752     682.748     309.287
  C      -73.696     682.785     308.493
  N      -73.918     682.160     307.301
  O      -68.674     686.048     308.729
  O      -70.737     685.733     310.219
  H      -73.308     681.588     303.752
  H      -68.915     686.982     308.909
  H      -77.678     680.123     306.009
  H      -72.748     683.247     308.763
  H      -73.100     680.949     305.834
  H      -74.126     683.449     304.989
  H      -72.461     684.711     306.258
  H      -70.415     682.699     305.140
  H      -69.313     683.168     307.387
  H      -78.604     681.644     310.175
  H      -77.140     682.476     310.738
  H      -69.264     684.503     306.249
  P      -71.854     686.367     304.329
  C      -69.602     686.894     303.150
  O      -71.020     686.937     303.092
  O      -71.010     686.815     305.616
  O      -73.285     686.803     304.423
  H      -71.409     687.618     306.011
  H      -69.203     687.019     302.134
  H      -69.243     685.949     303.570
  H      -69.250     687.732     303.784
  H      -67.875     682.929     311.110
  H      -68.944     684.174     311.711
  H      -67.549     684.607     310.751

 3  4  5  6  7  8  9  10  11  12  22  25  29  30  31  32 0
 6-311+G(2d,p)
 ****
 33  36  37 0
 6-311+G(2d,p)
 ****
 1  2  13  14  15  16  17  18  19  20  21  23  24  26 0
 3-21G
 ****
 27  28  34  35  38  39  40  41  42  43  44  45  46  47  48 0
 3-21G
 ****


