%nproc=1
%NoSave
%Mem=1900MB
#P OB98/GEN NMR

erre ene a

0 1
  C      221.210    -417.730     104.404
  O      221.696    -419.058     104.392
  H      222.058    -417.046     104.303
  H      220.705    -417.528     105.354
  H      220.522    -417.567     103.571
  P      220.596    -420.228     104.350
  C      222.446    -421.524     103.010
  O      221.397    -421.561     103.962
  C      223.639    -422.352     103.489
  O      224.288    -421.645     104.574
  C      223.258    -423.744     103.998
  O      224.302    -424.655     103.648
  C      223.230    -423.568     105.508
  O      223.413    -424.802     106.196
  C      224.351    -422.535     105.709
  N      224.220    -421.811     106.972
  C      225.097    -422.174     107.997
  O      225.920    -423.075     107.822
  N      224.997    -421.544     109.210
  C      224.060    -420.669     109.407
  N      223.998    -420.099     110.640
  C      223.084    -420.287     108.367
  C      223.228    -420.882     107.183
  O      219.787    -419.869     103.016
  O      219.751    -420.326     105.575
  H      223.681    -424.608     107.121
  H      220.360    -419.633     102.268
  H      222.314    -419.562     108.583
  H      222.560    -420.656     106.363
  H      225.333    -423.027     105.693
  H      222.267    -423.150     105.819
  H      222.305    -424.096     103.594
  H      224.367    -422.418     102.673
  H      224.670    -420.407     111.329
  H      222.766    -420.492     102.837
  H      223.278    -419.449     110.921
  H      222.061    -421.923     102.066
  P      224.228    -425.439     102.255
  C      226.686    -424.960     101.605
  O      225.694    -425.949     101.857
  O      223.475    -424.754     101.166
  O      223.490    -426.808     102.661
  H      222.856    -427.028     101.951
  H      227.610    -425.438     101.352
  H      226.822    -424.360     102.481
  H      226.372    -424.339     100.793

 6  7  8  9  10  11  12  13  14  15  16  26  30  31  32  33  35 0
 6-311+G(2d,p)
 ****
 37  38 0
 6-311+G(2d,p)
 ****
 1  2  3  4  5  17  18  19  20  21  22  23  24  25 0
 3-21G
 ****
 27  28  29  34  36  39  40  41  42  43  44  45  46 0
 3-21G
 ****


