%nproc=1
%NoSave
%Mem=1900MB
#P OB98/GEN NMR

erre ene a

0 1
  C      -56.824      38.314    -115.346
  O      -55.955      37.265    -114.974
  H      -56.810      38.408    -116.434
  H      -56.489      39.259    -114.911
  H      -57.847      38.098    -115.027
  P      -55.791      36.923    -113.415
  C      -54.321      39.056    -113.454
  O      -55.306      38.309    -112.758
  C      -54.271      40.486    -112.925
  O      -55.441      41.233    -113.321
  C      -54.238      40.606    -111.406
  O      -52.992      40.256    -110.829
  C      -54.551      42.083    -111.253
  O      -53.386      42.861    -111.580
  C      -55.662      42.261    -112.314
  N      -57.005      42.144    -111.748
  C      -57.327      43.028    -110.712
  O      -56.504      43.847    -110.305
  N      -58.569      42.943    -110.130
  C      -59.408      42.039    -110.533
  N      -60.621      41.994    -109.917
  C      -59.103      41.075    -111.607
  C      -57.900      41.184    -112.166
  O      -54.952      35.730    -113.090
  O      -57.291      36.817    -112.868
  H      -53.632      43.798    -111.473
  H      -57.247      36.595    -111.907
  H      -59.825      40.322    -111.885
  H      -57.600      40.507    -112.959
  H      -55.571      43.231    -112.816
  H      -54.849      42.359    -110.240
  H      -55.053      40.030    -110.950
  H      -53.404      40.977    -113.385
  H      -60.802      42.667    -109.184
  H      -54.570      39.040    -114.520
  H      -61.305      41.276    -110.113
  H      -53.336      38.601    -113.313
  P      -53.033      39.445    -109.442
  C      -53.047      41.606    -107.976
  O      -53.717      40.420    -108.372
  O      -51.497      39.399    -109.005
  O      -53.650      38.085    -109.519
  H      -51.094      38.543    -109.245
  H      -53.645      42.132    -107.261
  H      -52.886      42.227    -108.832
  H      -52.105      41.353    -107.536

 6  7  8  9  10  11  12  13  14  15  16  26  30  31  32  33  35 0
 6-311+G(2d,p)
 ****
 37  38 0
 6-311+G(2d,p)
 ****
 1  2  3  4  5  17  18  19  20  21  22  23  24  25 0
 3-21G
 ****
 27  28  29  34  36  39  40  41  42  43  44  45  46 0
 3-21G
 ****


