%nproc=1
%NoSave
%Mem=1900MB
#P OB98/GEN NMR

erre ene a

0 1
  C     -159.830     375.039     -56.603
  O     -159.620     374.048     -57.582
  H     -158.858     375.420     -56.277
  H     -160.340     374.617     -55.733
  H     -160.412     375.870     -57.011
  P     -160.884     373.282     -58.209
  C     -162.687     371.693     -57.301
  O     -161.560     372.499     -56.973
  C     -162.534     370.282     -56.731
  O     -161.481     369.579     -57.446
  C     -162.177     370.253     -55.236
  O     -163.012     369.314     -54.557
  C     -160.739     369.760     -55.221
  O     -160.376     369.144     -53.991
  C     -160.731     368.853     -56.452
  N     -159.380     368.534     -56.896
  C     -158.949     367.224     -56.675
  O     -159.702     366.409     -56.134
  N     -157.663     366.884     -57.011
  C     -156.862     367.787     -57.483
  N     -155.592     367.393     -57.773
  C     -157.271     369.192     -57.709
  C     -158.529     369.493     -57.399
  O     -160.573     372.435     -59.399
  O     -161.949     374.434     -58.522
  H     -159.456     368.805     -54.071
  H     -162.577     374.109     -59.208
  H     -156.562     369.905     -58.102
  H     -158.918     370.498     -57.530
  H     -161.264     367.909     -56.249
  H     -160.065     370.611     -55.384
  H     -162.273     371.225     -54.754
  H     -163.461     369.727     -56.928
  H     -155.358     366.420     -57.597
  H     -162.783     371.656     -58.393
  H     -154.878     368.007     -58.124
  H     -163.580     372.156     -56.872
  P     -164.325     369.911     -53.847
  C     -164.902     371.046     -51.585
  O     -163.894     370.481     -52.410
  O     -165.189     368.606     -53.506
  O     -165.087     370.865     -54.713
  H     -165.980     368.574     -54.078
  H     -164.466     371.380     -50.667
  H     -165.648     370.308     -51.378
  H     -165.351     371.876     -52.089

 6  7  8  9  10  11  12  13  14  15  16  26  30  31  32  33  35 0
 6-311+G(2d,p)
 ****
 37  38 0
 6-311+G(2d,p)
 ****
 1  2  3  4  5  17  18  19  20  21  22  23  24  25 0
 3-21G
 ****
 27  28  29  34  36  39  40  41  42  43  44  45  46 0
 3-21G
 ****


