%nproc=1
%NoSave
%Mem=1900MB
#P OB98/GEN NMR

erre ene a

0 1
  C      528.389     -67.727     -26.209
  O      528.231     -66.459     -26.822
  P      529.112     -65.247     -26.232
  C      529.411     -64.535     -28.726
  O      529.178     -64.137     -27.383
  C      529.863     -63.320     -29.545
  O      530.985     -62.676     -28.908
  C      530.317     -63.658     -30.963
  O      529.201     -63.796     -31.821
  C      531.212     -62.470     -31.289
  O      530.424     -61.336     -31.701
  C      531.896     -62.206     -29.941
  N      536.761     -62.058     -31.304
  C      535.682     -61.335     -31.780
  N      535.952     -60.409     -32.723
  N      534.453     -61.505     -31.360
  C      534.335     -62.470     -30.427
  C      535.321     -63.268     -29.891
  C      536.685     -63.034     -30.320
  O      537.682     -63.576     -29.858
  N      534.811     -64.157     -28.981
  C      533.526     -63.880     -28.948
  N      533.188     -62.852     -29.794
  O      530.589     -65.859     -26.193
  O      528.665     -64.731     -24.903
  H      529.967     -61.541     -32.537
  H      530.808     -66.171     -25.292
  H      537.687     -61.871     -31.646
  H      532.802     -64.375     -28.322
  H      532.052     -61.131     -29.764
  H      531.897     -62.684     -32.111
  H      536.865     -60.234     -33.107
  H      530.919     -64.581     -30.962
  H      535.174     -59.867     -33.087
  H      529.036     -62.602     -29.574
  H      528.486     -64.928     -29.149
  H      530.174     -65.316     -28.740
  P      529.175     -65.057     -32.812
  C      526.659     -64.514     -33.156
  O      527.889     -64.900     -33.750
  O      528.804     -66.279     -31.845
  O      530.461     -65.305     -33.528
  H      529.281     -67.079     -32.131
  H      526.075     -63.962     -33.891
  H      526.814     -63.889     -32.271
  H      526.110     -65.412     -32.865
  H      527.752     -68.438     -26.692
  H      528.127     -67.658     -25.174
  H      529.408     -68.042     -26.298

 3  4  5  6  7  8  9  10  11  12  23  26  30  31 0
 6-311+G(2d,p)
 ****
 33  35  36  37  38 0
 6-311+G(2d,p)
 ****
 1  2  13  14  15  16  17  18  19  20  21  22  24  25 0
 3-21G
 ****
 27  28  29  32  34  39  40  41  42  43  44  45  46  47  48  49 0
 3-21G
 ****


