%nproc=1
%NoSave
%Mem=1900MB
#P OB98/GEN NMR

erre ene a

0 1
  C      -61.616      -2.340    -203.628
  O      -60.329      -2.149    -203.075
  H      -61.530      -2.964    -204.523
  H      -62.049      -1.376    -203.914
  H      -62.272      -2.842    -202.909
  P      -60.241      -1.354    -201.685
  C      -61.057      -3.065    -199.893
  O      -59.954      -2.456    -200.549
  C      -60.688      -4.496    -199.485
  O      -60.759      -5.344    -200.665
  C      -59.272      -4.617    -198.909
  O      -59.272      -5.593    -197.862
  C      -58.461      -5.134    -200.092
  O      -57.273      -5.815    -199.714
  C      -59.495      -6.036    -200.778
  N      -59.174      -6.287    -202.183
  C      -58.505      -7.472    -202.488
  O      -58.240      -8.361    -201.668
  N      -58.143      -7.632    -203.800
  C      -58.350      -6.728    -204.813
  O      -57.980      -6.918    -205.962
  C      -59.047      -5.490    -204.423
  C      -59.417      -5.329    -203.151
  O      -61.762      -0.932    -201.406
  O      -59.309      -0.190    -201.663
  H      -61.953      -0.057    -201.793
  H      -56.772      -6.025    -200.532
  H      -57.665      -8.486    -204.037
  H      -59.221      -4.750    -205.198
  H      -59.923      -4.420    -202.836
  H      -59.587      -6.990    -200.241
  H      -58.180      -4.300    -200.745
  H      -58.882      -3.672    -198.534
  H      -61.438      -4.867    -198.767
  H      -61.912      -3.094    -200.579
  H      -61.325      -2.477    -199.010
  P      -58.760      -5.121    -196.413
  C      -60.689      -4.265    -194.866
  O      -59.989      -5.374    -195.407
  O      -58.710      -3.533    -196.596
  O      -57.464      -5.755    -196.017
  H      -59.438      -3.186    -197.148
  H      -61.469      -4.615    -194.223
  H      -61.114      -3.689    -195.661
  H      -60.012      -3.654    -194.306

 6  7  8  9  10  11  12  13  14  15  16  27  31  32  33  34  35 0
 6-311+G(2d,p)
 ****
 36  37 0
 6-311+G(2d,p)
 ****
 1  2  3  4  5  17  18  19  20  21  22  23  24  25 0
 3-21G
 ****
 26  28  29  30  38  39  40  41  42  43  44  45 0
 3-21G
 ****


