%nproc=1
%NoSave
%Mem=1900MB
#P OB98/GEN NMR

erre ene a

0 1
  C       -1.101      22.032      -6.332
  O       -1.910      23.139      -6.663
  H       -1.279      21.239      -7.063
  H       -1.372      21.662      -5.339
  H       -0.040      22.292      -6.349
  P       -1.542      24.570      -6.050
  C        0.535      26.100      -6.019
  O        0.041      24.782      -6.216
  C        1.833      26.109      -5.212
  O        1.568      25.761      -3.835
  C        2.841      25.078      -5.721
  O        3.641      25.500      -6.810
  C        3.692      24.834      -4.479
  O        4.739      25.813      -4.374
  C        2.684      25.002      -3.339
  N        3.711      20.957      -0.395
  C        4.530      22.016      -0.733
  N        5.800      21.958      -0.275
  N        4.139      23.023      -1.467
  C        2.874      22.898      -1.932
  C        1.973      21.889      -1.677
  C        2.399      20.804      -0.817
  O        1.714      19.838      -0.493
  N        0.779      22.105      -2.321
  C        0.984      23.201      -3.023
  N        2.232      23.734      -2.799
  O       -1.698      24.354      -4.469
  O       -2.394      25.708      -6.525
  H        5.365      25.520      -3.689
  H       -1.906      25.202      -4.037
  H        4.057      20.222       0.196
  H        0.259      23.664      -3.684
  H        3.113      25.572      -2.506
  H        4.177      23.854      -4.508
  H        6.178      21.149       0.193
  H        2.333      24.143      -5.978
  H        6.494      22.565      -0.715
  H        2.253      27.121      -5.215
  H       -0.242      26.650      -5.482
  H        0.679      26.599      -6.981
  P        4.285      24.418      -7.798
  C        3.254      22.561      -9.302
  O        3.134      23.358      -8.144
  O        5.275      23.607      -6.839
  O        4.996      24.987      -8.976
  H        6.182      23.955      -6.919
  H        2.405      21.914      -9.379
  H        4.146      21.973      -9.239
  H        3.302      23.191     -10.165

 6  7  8  9  10  11  12  13  14  15  26  29  33  34 0
 6-311+G(2d,p)
 ****
 36  38  39  40  41 0
 6-311+G(2d,p)
 ****
 1  2  3  4  5  16  17  18  19  20  21  22  23  24  25 0
 3-21G
 ****
 27  28  30  31  32  35  37  42  43  44  45  46  47 0
 3-21G
 ****
 48  49 0
 3-21G
 ****


