%nproc=1
%NoSave
%Mem=1900MB
#P OB98/GEN NMR

erre ene a

0 1
  C      148.639     -49.426      87.111
  O      147.322     -48.983      87.396
  P      147.061     -47.735      88.372
  C      147.094     -46.209      86.287
  O      147.629     -46.463      87.578
  C      146.768     -44.725      86.144
  O      145.705     -44.372      87.049
  C      147.924     -43.790      86.476
  O      148.872     -43.753      85.421
  C      147.176     -42.488      86.734
  O      146.835     -41.853      85.491
  C      145.896     -42.990      87.434
  N      145.950     -42.850      88.884
  C      144.897     -42.152      89.483
  O      143.975     -41.696      88.809
  N      144.891     -42.015      90.849
  C      145.862     -42.509      91.554
  N      145.770     -42.404      92.907
  C      147.018     -43.202      90.957
  C      146.995     -43.340      89.635
  O      147.597     -47.898      89.753
  O      145.484     -47.503      88.315
  H      147.670     -41.719      85.005
  H      144.981     -48.031      88.983
  H      147.810     -43.585      91.586
  H      147.797     -43.853      89.123
  H      145.021     -42.446      87.058
  H      147.745     -41.767      87.332
  H      148.425     -44.114      87.396
  H      146.417     -44.548      85.117
  H      144.882     -42.080      93.276
  H      146.172     -46.790      86.171
  H      146.314     -42.995      93.521
  H      147.813     -46.531      85.528
  P      150.270     -43.021      85.706
  C      151.156     -45.332      86.480
  O      151.044     -43.950      86.764
  O      149.844     -41.728      86.544
  O      151.043     -42.670      84.478
  H      149.838     -40.939      85.972
  H      151.895     -45.766      87.158
  H      151.485     -45.492      85.450
  H      150.194     -45.826      86.648
  H      148.598     -50.263      86.446
  H      149.122     -49.717      88.020
  H      149.191     -48.632      86.652

 3  4  5  6  7  8  9  10  11  12  13  23  27  28  29  30  32 0
 6-311+G(2d,p)
 ****
 34  35 0
 6-311+G(2d,p)
 ****
 1  2  14  15  16  17  18  19  20  21  22  24  25  26 0
 3-21G
 ****
 31  33  36  37  38  39  40  41  42  43  44  45  46 0
 3-21G
 ****


