%nproc=1
%NoSave
%Mem=1900MB
#P OB98/GEN NMR

erre ene a

0 1
  C     -668.997    -218.395    -379.223
  O     -668.223    -218.021    -380.345
  P     -668.183    -216.495    -380.825
  C     -669.681    -214.919    -382.195
  O     -669.621    -216.115    -381.422
  C     -670.022    -215.245    -383.650
  O     -671.350    -215.802    -383.761
  C     -670.021    -214.032    -384.567
  O     -668.714    -213.569    -384.844
  C     -670.777    -214.584    -385.769
  O     -669.908    -215.359    -386.609
  C     -671.823    -215.491    -385.092
  N     -673.146    -214.891    -385.060
  C     -674.073    -215.395    -385.979
  O     -673.737    -216.237    -386.808
  N     -675.360    -214.921    -385.936
  C     -675.661    -213.944    -385.138
  N     -676.964    -213.556    -385.096
  C     -674.671    -213.278    -384.266
  C     -673.452    -213.811    -384.263
  O     -667.028    -216.132    -381.698
  O     -668.140    -215.662    -379.457
  H     -667.410    -215.011    -379.508
  H     -669.707    -216.178    -386.114
  H     -674.956    -212.421    -383.672
  H     -672.665    -213.402    -383.638
  H     -671.882    -216.454    -385.616
  H     -671.201    -213.791    -386.394
  H     -670.607    -213.224    -384.109
  H     -669.301    -215.992    -384.004
  H     -677.621    -214.048    -385.691
  H     -668.710    -214.421    -382.143
  H     -677.356    -213.055    -384.304
  H     -670.434    -214.253    -381.763
  P     -668.560    -212.021    -385.238
  C     -670.081    -210.241    -386.348
  O     -669.852    -211.615    -386.095
  O     -667.376    -212.033    -386.315
  O     -668.245    -211.115    -384.092
  H     -666.828    -211.232    -386.213
  H     -670.763    -210.157    -387.201
  H     -669.150    -209.716    -386.581
  H     -670.556    -209.787    -385.475
  H     -668.899    -219.447    -379.057
  H     -670.024    -218.156    -379.403
  H     -668.653    -217.864    -378.360

 3  4  5  6  7  8  9  10  11  12  13  24  27  28  29  30  32 0
 6-311+G(2d,p)
 ****
 34  35 0
 6-311+G(2d,p)
 ****
 1  2  14  15  16  17  18  19  20  21  22  23  25  26 0
 3-21G
 ****
 31  33  36  37  38  39  40  41  42  43  44  45  46 0
 3-21G
 ****


