%nproc=1
%NoSave
%Mem=1900MB
#P OB98/GEN NMR

erre ene a

0 1
  C     -270.627     621.025     162.029
  O     -270.500     621.974     163.071
  P     -269.833     623.405     162.797
  C     -267.497     624.454     162.887
  O     -268.239     623.252     162.905
  C     -266.004     624.184     163.113
  O     -265.756     624.032     164.546
  C     -265.468     622.930     162.406
  O     -264.148     623.240     161.943
  C     -265.419     621.909     163.529
  O     -264.518     620.847     163.243
  C     -265.040     622.792     164.717
  N     -265.347     622.174     165.992
  C     -264.273     621.641     166.712
  O     -263.155     621.584     166.205
  N     -264.507     621.164     167.986
  C     -265.731     621.065     168.413
  N     -265.911     620.650     169.700
  C     -266.901     621.383     167.580
  C     -266.647     621.973     166.404
  O     -270.399     624.531     163.608
  O     -270.068     623.663     161.228
  H     -270.508     624.529     161.109
  H     -263.609     621.200     163.203
  H     -267.898     621.165     167.932
  H     -267.442     622.268     165.732
  H     -263.966     623.033     164.683
  H     -266.410     621.467     163.678
  H     -266.095     622.632     161.559
  H     -265.448     625.067     162.786
  H     -265.083     620.477     170.253
  H     -267.871     625.093     163.686
  H     -266.775     620.837     170.211
  H     -267.649     624.976     161.935
  P     -263.585     622.426     160.671
  C     -261.858     620.515     160.293
  O     -262.571     621.298     161.220
  O     -262.562     623.499     160.040
  O     -264.582     622.007     159.648
  H     -262.458     623.300     159.084
  H     -261.296     619.758     160.832
  H     -261.165     621.137     159.725
  H     -262.552     620.005     159.607
  H     -271.094     620.140     162.408
  H     -269.657     620.782     161.648
  H     -271.226     621.436     161.244

 3  4  5  6  7  8  9  10  11  12  13  24  27  28  29  30  32 0
 6-311+G(2d,p)
 ****
 34  35 0
 6-311+G(2d,p)
 ****
 1  2  14  15  16  17  18  19  20  21  22  23  25  26 0
 3-21G
 ****
 31  33  36  37  38  39  40  41  42  43  44  45  46 0
 3-21G
 ****


