%nproc=1
%NoSave
%Mem=1900MB
#P OB98/GEN NMR

erre ene a

0 1
  C       60.134     -59.854    -110.700
  O       61.102     -59.219    -111.519
  P       62.599     -59.791    -111.502
  C       63.401     -57.831    -110.000
  O       63.325     -59.238    -110.181
  C       63.715     -57.486    -108.543
  O       62.720     -58.093    -107.675
  C       65.087     -57.982    -108.076
  O       65.630     -57.053    -107.125
  C       64.767     -59.259    -107.329
  O       65.788     -59.588    -106.387
  C       63.421     -58.894    -106.702
  N       61.810     -61.746    -102.853
  C       62.358     -60.479    -102.836
  N       62.586     -59.938    -101.618
  N       62.652     -59.801    -103.914
  C       62.375     -60.471    -105.060
  C       61.819     -61.723    -105.204
  C       61.510     -62.465    -104.002
  O       61.050     -63.602    -103.949
  N       61.658     -62.050    -106.525
  C       62.155     -61.022    -107.184
  N       62.636     -60.054    -106.338
  O       63.305     -58.979    -112.687
  O       62.706     -61.262    -111.724
  H       65.525     -60.429    -105.967
  H       63.423     -59.560    -113.462
  H       61.612     -62.232    -101.993
  H       62.215     -60.937    -108.260
  H       63.550     -58.280    -105.803
  H       64.669     -60.094    -108.031
  H       62.444     -60.434    -100.753
  H       65.811     -58.140    -108.883
  H       63.028     -59.029    -101.579
  H       63.632     -56.400    -108.415
  H       62.445     -57.384    -110.275
  H       64.174     -57.418    -110.658
  P       67.234     -56.976    -107.052
  C       67.287     -57.716    -104.558
  O       67.666     -57.990    -105.890
  O       67.504     -55.533    -106.420
  O       67.914     -57.162    -108.368
  H       68.384     -55.208    -106.686
  H       66.626     -58.513    -104.205
  H       66.771     -56.757    -104.461
  H       68.183     -57.696    -103.931
  H       59.190     -59.364    -110.818
  H       60.440     -59.797    -109.676
  H       60.041     -60.880    -110.988

 3  4  5  6  7  8  9  10  11  12  23  26  30  31 0
 6-311+G(2d,p)
 ****
 33  35  36  37  38 0
 6-311+G(2d,p)
 ****
 1  2  13  14  15  16  17  18  19  20  21  22  24  25 0
 3-21G
 ****
 27  28  29  32  34  39  40  41  42  43  44  45  46  47  48  49 0
 3-21G
 ****


