%nproc=1
%NoSave
%Mem=1900MB
#P OB98/GEN NMR

erre ene a

0 1
  C      311.436    -680.046     -55.249
  O      311.104    -678.680     -55.112
  H      312.513    -680.157     -55.113
  H      311.171    -680.400     -56.250
  H      310.924    -680.650     -54.492
  P      309.555    -678.259     -55.109
  C      308.195    -676.140     -54.541
  O      309.481    -676.751     -54.575
  C      307.922    -675.586     -53.144
  O      307.638    -676.662     -52.225
  C      309.105    -674.831     -52.539
  O      309.226    -673.541     -53.107
  C      308.728    -674.846     -51.067
  O      307.769    -673.818     -50.770
  C      308.100    -676.248     -50.918
  N      309.024    -677.228     -50.352
  C      309.516    -676.953     -49.079
  O      309.237    -675.928     -48.457
  N      310.374    -677.884     -48.556
  C      310.865    -678.979     -49.207
  O      311.705    -679.732     -48.725
  C      310.327    -679.206     -50.557
  C      309.447    -678.336     -51.056
  O      308.626    -679.213     -54.441
  O      309.208    -678.100     -56.667
  H      307.026    -673.947     -51.389
  H      308.684    -678.871     -56.962
  H      310.755    -677.690     -47.642
  H      310.679    -680.072     -51.102
  H      309.046    -678.490     -52.051
  H      307.211    -676.203     -50.275
  H      309.589    -674.679     -50.423
  H      310.027    -675.401     -52.679
  H      307.033    -674.941     -53.199
  H      307.439    -676.894     -54.789
  H      308.163    -675.341     -55.292
  P      310.659    -672.821     -53.148
  C      311.920    -671.205     -54.699
  O      310.683    -671.856     -54.432
  O      311.833    -673.732     -53.022
  O      310.601    -671.795     -51.924
  H      311.304    -672.013     -51.288
  H      311.820    -670.592     -55.571
  H      312.681    -671.939     -54.864
  H      312.189    -670.594     -53.863

 6  7  8  9  10  11  12  13  14  15  16  26  31  32  33  34  35 0
 6-311+G(2d,p)
 ****
 36  37 0
 6-311+G(2d,p)
 ****
 1  2  3  4  5  17  18  19  20  21  22  23  24  25 0
 3-21G
 ****
 27  28  29  30  38  39  40  41  42  43  44  45 0
 3-21G
 ****


