%nproc=1
%NoSave
%Mem=1900MB
#P OB98/GEN NMR

erre ene a

0 1
  C      397.007     -94.700     103.681
  O      397.960     -95.053     102.668
  P      398.388     -96.597     102.563
  C      399.617     -98.339     104.061
  O      399.189     -96.992     103.897
  C      401.033     -98.376     104.648
  O      401.992     -97.834     103.726
  C      401.176     -97.544     105.911
  O      400.634     -98.226     107.028
  C      402.687     -97.339     105.987
  O      403.328     -98.388     106.731
  C      403.119     -97.380     104.498
  N      403.610     -96.100     104.018
  C      404.891     -96.107     103.461
  O      405.545     -97.154     103.412
  N      405.409     -94.926     102.990
  C      404.717     -93.832     103.094
  N      405.291     -92.694     102.613
  C      403.370     -93.776     103.701
  C      402.886     -94.936     104.140
  O      399.525     -96.583     101.442
  O      397.264     -97.513     102.202
  H      404.282     -98.335     106.498
  H      399.508     -97.417     100.930
  H      402.838     -92.838     103.771
  H      401.902     -94.991     104.603
  H      403.917     -98.121     104.353
  H      402.942     -96.399     106.481
  H      400.679     -96.571     105.781
  H      401.294     -99.424     104.857
  H      406.212     -92.765     102.208
  H      399.598     -98.864     103.109
  H      404.840     -91.785     102.648
  H      398.902     -98.861     104.719
  P      399.431     -97.529     107.821
  C      399.263     -95.492     109.382
  O      400.070     -96.206     108.463
  O      399.280     -98.474     109.104
  O      398.140     -97.353     107.092
  H      398.503     -98.209     109.633
  H      399.879     -94.753     109.898
  H      398.843     -96.175     110.126
  H      398.457     -94.980     108.850
  H      396.814     -93.648     103.638
  H      397.400     -94.952     104.644
  H      396.096     -95.237     103.516

 3  4  5  6  7  8  9  10  11  12  13  21  23  27  28  29  30  32 0
 6-311+G(2d,p)
 ****
 34  35 0
 6-311+G(2d,p)
 ****
 1  2  14  15  16  17  18  19  20  22  24  25  26 0
 3-21G
 ****
 31  33  36  37  38  39  40  41  42  43  44  45  46 0
 3-21G
 ****


