%nproc=1
%NoSave
%Mem=1900MB
#P OB98/GEN NMR

erre ene a

0 1
  C     -125.349     204.133     139.084
  O     -125.691     205.469     139.393
  H     -124.263     204.032     139.130
  H     -125.681     203.873     138.074
  H     -125.793     203.449     139.811
  P     -127.233     205.907     139.278
  C     -126.654     207.060     137.031
  O     -127.468     206.109     137.701
  C     -127.290     207.456     135.700
  O     -126.608     208.586     135.116
  C     -127.243     206.376     134.623
  O     -128.166     205.321     134.842
  C     -127.592     207.210     133.400
  O     -129.005     207.487     133.392
  C     -126.778     208.498     133.672
  N     -125.476     208.502     133.004
  C     -125.426     209.096     131.736
  O     -126.437     209.583     131.231
  N     -124.233     209.092     131.050
  C     -123.191     208.529     131.576
  N     -122.047     208.511     130.834
  C     -123.196     207.908     132.914
  C     -124.358     207.924     133.565
  O     -127.661     207.050     140.142
  O     -128.051     204.558     139.554
  H     -129.211     207.890     132.529
  H     -129.013     204.780     139.507
  H     -122.301     207.444     133.303
  H     -124.446     207.473     134.546
  H     -127.338     209.386     133.359
  H     -127.354     206.712     132.455
  H     -126.228     205.987     134.502
  H     -128.319     207.774     135.906
  H     -122.091     208.908     129.906
  H     -125.666     206.617     136.878
  H     -121.293     207.865     131.046
  H     -126.548     207.961     137.643
  P     -127.803     203.872     134.249
  C     -129.209     204.197     132.078
  O     -127.930     203.983     132.653
  O     -129.069     202.989     134.670
  O     -126.510     203.284     134.720
  H     -128.909     202.525     135.513
  H     -129.118     204.246     131.013
  H     -129.615     205.117     132.444
  H     -129.859     203.389     132.343

 6  7  8  9  10  11  12  13  14  15  16  26  30  31  32  33  35 0
 6-311+G(2d,p)
 ****
 37  38 0
 6-311+G(2d,p)
 ****
 1  2  3  4  5  17  18  19  20  21  22  23  24  25 0
 3-21G
 ****
 27  28  29  34  36  39  40  41  42  43  44  45  46 0
 3-21G
 ****


