%nproc=1
%NoSave
%Mem=1900MB
#P OB98/GEN NMR

erre ene a

0 1
  C      283.076    -347.696    -298.366
  O      283.686    -347.282    -297.150
  P      283.415    -348.154    -295.830
  C      281.988    -346.448    -294.498
  O      283.234    -347.117    -294.616
  C      282.174    -345.017    -293.993
  O      282.686    -345.060    -292.633
  C      283.148    -344.170    -294.817
  O      282.680    -342.819    -294.775
  C      284.440    -344.274    -294.033
  O      285.348    -343.212    -294.336
  C      283.894    -344.268    -292.606
  N      287.473    -343.178    -289.122
  C      286.691    -342.386    -289.881
  N      285.758    -342.748    -290.789
  C      285.676    -344.091    -290.871
  C      286.435    -345.026    -290.185
  C      287.373    -344.520    -289.268
  N      288.165    -345.328    -288.478
  N      286.083    -346.304    -290.558
  C      285.129    -346.145    -291.456
  N      284.834    -344.826    -291.660
  O      284.846    -348.812    -295.549
  O      282.352    -349.190    -295.959
  H      286.058    -343.222    -293.669
  H      284.804    -349.778    -295.708
  H      286.827    -341.314    -289.742
  H      284.628    -346.947    -291.981
  H      283.631    -343.259    -292.267
  H      284.945    -345.219    -294.263
  H      283.260    -344.503    -295.856
  H      281.189    -344.534    -293.952
  H      281.361    -346.991    -293.783
  H      288.709    -344.896    -287.752
  H      287.963    -346.322    -288.442
  H      281.480    -346.442    -295.470
  P      281.969    -342.251    -296.098
  C      283.650    -340.364    -296.668
  O      282.356    -340.703    -296.202
  O      280.415    -342.228    -295.702
  O      282.214    -343.074    -297.320
  H      279.868    -342.327    -296.500
  H      283.589    -339.423    -297.226
  H      284.068    -341.136    -297.322
  H      284.312    -340.224    -295.813
  H      283.348    -347.020    -299.150
  H      282.012    -347.697    -298.249
  H      283.408    -348.682    -298.614

 3  4  5  6  7  8  9  10  11  12  22  25  29  30  31  32 0
 6-311+G(2d,p)
 ****
 33  36  37 0
 6-311+G(2d,p)
 ****
 1  2  13  14  15  16  17  18  19  20  21  23  24  26 0
 3-21G
 ****
 27  28  34  35  38  39  40  41  42  43  44  45  46  47  48 0
 3-21G
 ****


