%nproc=1
%NoSave
%Mem=1900MB
#P OB98/GEN NMR

erre ene a

0 1
  C       32.839    -397.943     -10.361
  O       32.112    -398.380      -9.229
  H       33.476    -397.098     -10.094
  H       33.469    -398.764     -10.714
  H       32.153    -397.655     -11.163
  P       31.136    -397.300      -8.553
  C       29.101    -398.895      -8.423
  O       30.052    -398.127      -7.699
  C       28.360    -399.836      -7.478
  O       29.320    -400.788      -6.945
  C       27.680    -399.129      -6.293
  O       26.315    -399.549      -6.173
  C       28.445    -399.622      -5.077
  O       27.625    -399.766      -3.924
  C       29.009    -400.955      -5.557
  N       30.626    -403.353      -1.357
  C       29.466    -403.437      -2.040
  N       29.131    -402.845      -3.205
  C       30.162    -402.127      -3.685
  C       31.413    -401.968      -3.115
  C       31.625    -402.606      -1.881
  N       32.791    -402.475      -1.154
  N       32.211    -401.149      -3.895
  C       31.436    -400.782      -4.896
  N       30.185    -401.337      -4.804
  O       30.292    -396.740      -9.797
  O       31.835    -396.202      -7.825
  H       27.410    -398.869      -3.608
  H       30.461    -395.782      -9.883
  H       28.695    -404.055      -1.586
  H       31.710    -400.092      -5.683
  H       28.270    -401.761      -5.470
  H       29.246    -398.909      -4.848
  H       27.718    -398.038      -6.374
  H       27.625    -400.410      -8.056
  H       29.615    -399.485      -9.190
  H       32.814    -402.872      -0.229
  H       33.495    -401.830      -1.487
  H       28.395    -398.216      -8.916
  P       25.208    -398.538      -6.754
  C       23.803    -400.304      -8.042
  O       23.846    -399.361      -6.974
  O       25.728    -398.239      -8.240
  O       25.068    -397.280      -5.964
  H       25.845    -397.280      -8.366
  H       22.841    -400.772      -8.066
  H       24.558    -401.048      -7.892
  H       23.978    -399.800      -8.970

 6  7  8  9  10  11  12  13  14  15  25  28  32  33  34  35 0
 6-311+G(2d,p)
 ****
 36  39  40 0
 6-311+G(2d,p)
 ****
 1  2  3  4  5  16  17  18  19  20  21  22  23  24 0
 3-21G
 ****
 26  27  29  30  31  37  38  41  42  43  44  45  46  47  48 0
 3-21G
 ****


