%nproc=1
%NoSave
%Mem=1900MB
#P OB98/GEN NMR

erre ene a

0 1
  C      776.521    -268.068    -587.826
  O      777.821    -267.548    -587.592
  P      779.078    -268.530    -587.578
  C      780.745    -266.787    -588.551
  O      780.395    -267.615    -587.467
  C      782.006    -265.947    -588.221
  O      781.714    -265.154    -587.041
  C      783.230    -266.773    -587.861
  O      784.389    -265.941    -587.994
  C      783.004    -267.081    -586.399
  O      784.200    -267.440    -585.717
  C      782.306    -265.782    -585.890
  N      781.278    -266.082    -584.875
  C      781.732    -266.282    -583.569
  O      782.905    -266.140    -583.232
  N      780.791    -266.722    -582.669
  C      779.487    -267.017    -582.976
  O      778.758    -267.700    -582.260
  C      779.017    -266.571    -584.295
  C      779.936    -266.149    -585.178
  O      779.131    -269.079    -589.088
  O      779.005    -269.647    -586.596
  H      783.941    -267.687    -584.792
  H      778.678    -269.942    -589.149
  H      781.148    -267.005    -581.767
  H      777.966    -266.639    -584.517
  H      779.624    -265.860    -586.186
  H      783.043    -265.086    -585.447
  H      782.301    -267.930    -586.322
  H      783.360    -267.678    -588.453
  H      782.214    -265.269    -589.049
  H      779.899    -266.131    -588.791
  H      780.945    -267.384    -589.438
  P      785.659    -266.527    -588.783
  C      786.221    -264.310    -589.938
  O      786.652    -265.286    -589.023
  O      785.370    -267.350    -589.982
  O      786.423    -267.370    -587.642
  H      787.032    -267.993    -588.056
  H      786.647    -263.329    -589.658
  H      785.132    -264.206    -589.943
  H      786.564    -264.566    -590.939
  H      775.808    -267.271    -587.800
  H      776.282    -268.785    -587.069
  H      776.493    -268.540    -588.786

 3  4  5  6  7  8  9  10  11  12  13  23  28  29  30  31  32 0
 6-311+G(2d,p)
 ****
 33  34 0
 6-311+G(2d,p)
 ****
 1  2  14  15  16  17  18  19  20  21  22  24  25  26  27 0
 3-21G
 ****
 35  36  37  38  39  40  41  42  43  44  45 0
 3-21G
 ****


