%nproc=1
%NoSave
%Mem=1900MB
#P OB98/GEN NMR

erre ene a

0 1
  C      363.550     114.978    -241.151
  O      362.733     116.129    -240.926
  P      363.053     116.995    -239.612
  C      361.586     115.569    -238.014
  O      362.886     116.045    -238.321
  C      361.448     115.195    -236.531
  O      362.297     114.060    -236.201
  C      361.814     116.333    -235.579
  O      360.977     116.217    -234.427
  C      363.243     115.992    -235.174
  O      363.600     116.640    -233.953
  C      363.157     114.461    -235.110
  N      364.466     113.812    -235.194
  C      365.212     113.723    -234.012
  O      364.786     114.243    -232.977
  N      366.431     113.093    -234.036
  C      366.890     112.633    -235.162
  N      368.105     112.015    -235.119
  C      366.171     112.754    -236.445
  C      364.978     113.345    -236.382
  O      361.806     117.995    -239.511
  O      364.343     117.740    -239.682
  H      364.513     116.363    -233.717
  H      362.119     118.907    -239.383
  H      366.607     112.376    -237.358
  H      364.373     113.480    -237.272
  H      362.682     114.137    -234.178
  H      363.947     116.313    -235.960
  H      361.709     117.328    -236.024
  H      360.412     114.886    -236.353
  H      368.562     111.944    -234.218
  H      361.356     114.693    -238.628
  H      368.563     111.626    -235.933
  H      360.850     116.334    -238.296
  P      359.555     116.961    -234.438
  C      360.184     119.071    -233.110
  O      359.912     118.528    -234.390
  O      359.038     116.703    -232.939
  O      358.535     116.536    -235.447
  H      358.133     117.056    -232.840
  H      360.532     120.097    -233.231
  H      360.973     118.487    -232.607
  H      359.274     119.073    -232.497
  H      363.239     114.490    -242.051
  H      363.450     114.303    -240.327
  H      364.573     115.279    -241.243

 3  4  5  6  7  8  9  10  11  12  13  21  23  27  28  29  30  32 0
 6-311+G(2d,p)
 ****
 34  35 0
 6-311+G(2d,p)
 ****
 1  2  14  15  16  17  18  19  20  22  24  25  26 0
 3-21G
 ****
 31  33  36  37  38  39  40  41  42  43  44  45  46 0
 3-21G
 ****


