%nproc=1
%NoSave
%Mem=1900MB
#P OB98/GEN NMR

erre ene a

0 1
  C      -84.288     107.046     -18.447
  O      -83.014     107.451     -18.922
  P      -82.460     108.932     -18.648
  C      -80.119     109.958     -18.368
  O      -80.872     108.758     -18.497
  C      -78.626     109.640     -18.350
  O      -78.288     109.110     -17.046
  C      -78.157     108.581     -19.347
  O      -77.891     109.074     -20.652
  C      -76.848     108.144     -18.700
  O      -75.819     109.110     -18.983
  C      -77.200     108.167     -17.210
  N      -75.573     103.538     -15.758
  C      -74.911     104.642     -16.171
  N      -75.417     105.831     -16.560
  C      -76.756     105.832     -16.449
  C      -77.568     104.788     -16.039
  C      -76.924     103.592     -15.680
  N      -77.601     102.475     -15.238
  N      -78.898     105.162     -16.074
  C      -78.882     106.412     -16.484
  N      -77.612     106.864     -16.716
  O      -83.143     109.651     -17.537
  O      -82.608     109.676     -20.054
  H      -75.737     109.161     -19.955
  H      -82.548     110.643     -19.927
  H      -73.827     104.556     -16.199
  H      -79.760     107.025     -16.632
  H      -76.370     108.516     -16.586
  H      -76.490     107.181     -19.072
  H      -78.845     107.728     -19.377
  H      -78.072     110.576     -18.487
  H      -80.396     110.438     -17.422
  H      -77.050     101.712     -14.880
  H      -78.584     102.570     -15.025
  H      -80.368     110.638     -19.186
  P      -77.952     108.016     -21.861
  C      -77.883     108.301     -24.463
  O      -78.078     108.894     -23.198
  O      -78.974     106.946     -21.699
  O      -76.451     107.463     -21.924
  H      -75.782     108.109     -22.203
  H      -78.169     109.020     -25.236
  H      -78.501     107.406     -24.575
  H      -76.830     108.041     -24.598
  H      -84.469     106.031     -18.732
  H      -85.043     107.675     -18.870
  H      -84.313     107.127     -17.380

 3  4  5  6  7  8  9  10  11  12  22  25  29  30  31  32 0
 6-311+G(2d,p)
 ****
 33  36  37 0
 6-311+G(2d,p)
 ****
 1  2  13  14  15  16  17  18  19  20  21  23  24  26 0
 3-21G
 ****
 27  28  34  35  38  39  40  41  42  43  44  45  46  47  48 0
 3-21G
 ****


