%nproc=1
%NoSave
%Mem=1900MB
#P OB98/GEN NMR

erre ene a

0 1
  C     -894.370    -333.201    -892.010
  O     -894.650    -331.892    -892.410
  H     -893.660    -333.181    -891.190
  H     -895.300    -333.653    -891.650
  H     -893.980    -333.774    -892.840
  P     -893.470    -331.060    -893.120
  C     -895.130    -330.050    -894.830
  O     -893.930    -330.835    -894.630
  C     -895.310    -329.724    -896.300
  O     -894.160    -328.858    -896.720
  C     -895.390    -330.955    -897.240
  O     -896.300    -330.694    -898.280
  C     -893.970    -331.020    -897.830
  O     -893.950    -331.679    -899.050
  C     -893.570    -329.524    -897.860
  N     -889.730    -326.593    -899.570
  C     -891.080    -326.407    -899.500
  N     -892.030    -327.240    -899.090
  C     -891.480    -328.347    -898.570
  C     -890.120    -328.665    -898.460
  C     -889.240    -327.727    -899.050
  N     -887.850    -327.922    -899.080
  N     -889.960    -329.949    -897.860
  C     -891.230    -330.306    -897.570
  N     -892.170    -329.341    -897.960
  O     -892.320    -332.201    -893.290
  O     -892.910    -329.887    -892.390
  H     -894.490    -331.190    -899.720
  H     -891.860    -332.309    -892.430
  H     -891.380    -325.458    -900.000
  H     -891.450    -331.216    -897.070
  H     -894.010    -329.041    -898.810
  H     -893.280    -331.530    -897.110
  H     -895.580    -331.866    -896.660
  H     -896.220    -329.057    -896.420
  H     -895.060    -329.104    -894.250
  H     -887.320    -327.256    -899.530
  H     -887.490    -328.806    -898.770
  H     -895.970    -330.601    -894.450
  P     -897.540    -331.701    -898.330
  C     -899.330    -330.055    -897.430
  O     -898.620    -331.244    -897.210
  O     -896.970    -333.085    -897.780
  O     -898.110    -331.861    -899.720
  H     -897.220    -333.808    -898.380
  H     -900.000    -329.884    -896.614
  H     -899.888    -330.136    -898.339
  H     -898.643    -329.238    -897.505

 6  7  8  9  10  11  12  13  14  15  25  28  32  33  34  35 0
 6-311+G(2d,p)
 ****
 36  39  40 0
 6-311+G(2d,p)
 ****
 1  2  3  4  5  16  17  18  19  20  21  22  23  24 0
 3-21G
 ****
 26  27  29  30  31  37  38  41  42  43  44  45  46  47 0
 3-21G
 ****
 48 0
 3-21G
 ****


