%nproc=1
%NoSave
%Mem=1900MB
#P OB98/GEN NMR

erre ene a

0 1
  C      304.824     -71.346     204.938
  O      304.526     -70.035     205.365
  H      305.257     -71.299     203.935
  H      303.909     -71.941     204.894
  H      305.544     -71.818     205.611
  P      304.024     -69.848     206.878
  C      305.279     -69.679     209.145
  O      305.316     -69.448     207.745
  C      306.179     -68.680     209.873
  O      307.547     -68.875     209.431
  C      305.806     -67.218     209.620
  O      305.989     -66.482     210.833
  C      306.826     -66.760     208.593
  O      307.042     -65.349     208.624
  C      308.048     -67.605     208.972
  N      308.964     -67.758     207.844
  C      309.823     -66.687     207.583
  O      309.779     -65.673     208.282
  N      310.668     -66.762     206.506
  C      310.600     -67.781     205.707
  N      311.442     -67.783     204.638
  C      309.661     -68.901     205.904
  C      308.887     -68.830     206.986
  O      303.713     -71.342     207.354
  O      302.855     -68.938     207.056
  H      307.541     -65.132     209.441
  H      302.982     -71.363     208.000
  H      309.625     -69.716     205.196
  H      308.162     -69.603     207.210
  H      308.593     -67.144     209.807
  H      306.478     -67.024     207.588
  H      304.780     -67.090     209.267
  H      306.155     -68.910     210.945
  H      312.059     -66.986     204.528
  H      305.636     -70.694     209.348
  H      311.445     -68.500     203.928
  H      304.246     -69.592     209.500
  P      304.754     -66.463     211.856
  C      303.695     -68.322     213.328
  O      304.887     -67.734     212.824
  O      303.500     -66.818     210.929
  O      304.573     -65.153     212.552
  H      302.944     -66.028     210.802
  H      303.944     -69.153     213.954
  H      303.091     -68.659     212.512
  H      303.153     -67.597     213.898

 6  7  8  9  10  11  12  13  14  15  16  26  30  31  32  33  35 0
 6-311+G(2d,p)
 ****
 37  38 0
 6-311+G(2d,p)
 ****
 1  2  3  4  5  17  18  19  20  21  22  23  24  25 0
 3-21G
 ****
 27  28  29  34  36  39  40  41  42  43  44  45  46 0
 3-21G
 ****


