%nproc=1
%NoSave
%Mem=1900MB
#P OB98/GEN NMR

erre ene a

0 1
  C      502.120    -139.688    -459.923
  O      500.747    -139.741    -459.538
  P      499.796    -138.466    -459.416
  C      500.535    -137.687    -457.013
  O      500.485    -137.432    -458.414
  C      501.589    -136.858    -456.299
  O      501.235    -135.455    -456.321
  C      501.656    -137.248    -454.798
  O      502.413    -138.374    -454.395
  C      502.003    -135.952    -454.063
  O      503.410    -135.829    -453.841
  C      501.502    -134.866    -455.020
  N      499.671    -130.737    -452.641
  C      500.976    -131.084    -452.878
  N      501.935    -130.266    -452.378
  N      501.334    -132.164    -453.543
  C      500.286    -132.941    -453.906
  C      498.941    -132.717    -453.709
  C      498.552    -131.479    -453.022
  O      497.412    -131.111    -452.800
  N      498.168    -133.749    -454.207
  C      499.051    -134.595    -454.674
  N      500.344    -134.166    -454.508
  O      498.346    -138.767    -459.182
  O      499.933    -137.756    -460.861
  H      503.855    -135.927    -454.715
  H      499.050    -137.328    -461.043
  H      499.458    -129.882    -452.143
  H      498.808    -135.548    -455.122
  H      502.278    -134.106    -455.184
  H      501.515    -135.917    -453.086
  H      501.728    -129.479    -451.785
  H      500.628    -137.493    -454.482
  H      502.876    -130.626    -452.366
  H      502.567    -136.931    -456.777
  H      500.746    -138.760    -456.903
  H      499.546    -137.513    -456.568
  P      501.860    -139.872    -454.189
  C      501.856    -139.632    -451.627
  O      501.076    -139.927    -452.799
  O      503.181    -140.727    -453.904
  O      501.099    -140.423    -455.357
  H      502.998    -141.682    -454.029
  H      501.327    -139.999    -450.744
  H      501.968    -138.568    -451.545
  H      502.836    -140.122    -451.703
  H      502.528    -140.677    -459.927
  H      502.662    -139.081    -459.228
  H      502.200    -139.266    -460.903

 3  4  5  6  7  8  9  10  11  12  23  26  30  31 0
 6-311+G(2d,p)
 ****
 33  35  36  37  38 0
 6-311+G(2d,p)
 ****
 1  2  13  14  15  16  17  18  19  20  21  22  24  25 0
 3-21G
 ****
 27  28  29  32  34  39  40  41  42  43  44  45  46  47  48  49 0
 3-21G
 ****


