%nproc=1
%NoSave
%Mem=1900MB
#P OB98/GEN NMR

erre ene a

0 1
  C      118.524      90.019     419.984
  O      117.765      89.295     420.932
  H      119.194      89.327     419.460
  H      119.132      90.766     420.507
  H      117.879      90.510     419.256
  P      116.457      90.012     421.528
  C      115.506      87.646     422.008
  O      115.760      88.946     422.513
  C      115.608      86.612     423.134
  O      117.013      86.483     423.514
  C      114.811      86.968     424.396
  O      114.263      85.768     424.959
  C      115.885      87.493     425.336
  O      115.501      87.396     426.704
  C      117.054      86.591     424.951
  N      120.325      86.428     428.759
  C      119.239      85.622     428.473
  N      118.945      84.656     429.362
  N      118.512      85.750     427.393
  C      118.933      86.743     426.574
  C      119.979      87.618     426.750
  C      120.776      87.476     427.954
  O      121.730      88.172     428.277
  N      120.043      88.522     425.721
  C      119.020      88.219     424.942
  N      118.315      87.143     425.418
  O      115.474      90.062     420.266
  O      116.681      91.367     422.113
  H      115.153      86.498     426.860
  H      115.558      90.926     419.814
  H      120.847      86.292     429.613
  H      118.738      88.747     424.040
  H      116.968      85.582     425.379
  H      116.099      88.543     425.106
  H      119.475      84.463     430.198
  H      114.007      87.693     424.218
  H      118.181      84.023     429.148
  H      115.290      85.632     422.733
  H      116.252      87.410     421.237
  H      114.512      87.613     421.559
  P      113.078      85.031     424.172
  C      113.374      82.740     425.367
  O      112.519      83.832     425.084
  O      113.850      84.265     422.992
  O      112.040      85.965     423.629
  H      113.290      84.245     422.188
  H      112.857      82.032     425.981
  H      114.243      83.092     425.883
  H      113.668      82.271     424.451

 6  7  8  9  10  11  12  13  14  15  26  29  33  34 0
 6-311+G(2d,p)
 ****
 36  38  39  40  41 0
 6-311+G(2d,p)
 ****
 1  2  3  4  5  16  17  18  19  20  21  22  23  24  25 0
 3-21G
 ****
 27  28  30  31  32  35  37  42  43  44  45  46  47 0
 3-21G
 ****
 48  49 0
 3-21G
 ****


