%nproc=1
%NoSave
%Mem=1900MB
#P OB98/GEN NMR

erre ene a

0 1
  C      568.989     184.300    -556.527
  O      569.519     185.576    -556.830
  H      567.896     184.313    -556.621
  H      569.396     183.576    -557.228
  H      569.273     184.001    -555.512
  P      569.012     186.792    -555.895
  C      566.705     186.969    -557.057
  O      567.405     186.702    -555.853
  C      565.213     187.144    -556.773
  O      564.564     187.567    -558.001
  C      564.509     185.850    -556.278
  O      563.747     186.123    -555.095
  C      563.560     185.506    -557.401
  O      562.334     184.916    -556.934
  C      563.317     186.853    -558.076
  N      559.252     186.422    -561.138
  C      559.382     186.921    -559.884
  N      560.510     187.110    -559.166
  C      561.590     186.732    -559.869
  C      561.614     186.225    -561.163
  C      560.382     186.057    -561.812
  N      560.245     185.494    -563.053
  N      562.931     185.948    -561.554
  C      563.657     186.237    -560.508
  N      562.902     186.701    -559.458
  O      569.300     188.084    -556.799
  O      569.695     186.879    -554.574
  H      562.562     184.004    -556.657
  H      569.932     188.660    -556.324
  H      558.459     187.224    -559.412
  H      564.736     186.091    -560.431
  H      562.562     187.448    -557.547
  H      564.044     184.799    -558.084
  H      565.223     185.038    -556.094
  H      565.085     187.951    -556.034
  H      566.845     186.124    -557.754
  H      559.314     185.305    -563.384
  H      561.069     185.116    -563.505
  H      567.121     187.871    -557.513
  P      564.260     185.376    -553.752
  C      562.184     183.826    -553.365
  O      563.576     183.914    -553.705
  O      563.506     186.193    -552.577
  O      565.725     185.399    -553.565
  H      564.162     186.547    -551.949
  H      561.878     182.801    -553.376
  H      561.607     184.377    -554.078
  H      562.029     184.234    -552.388

 6  7  8  9  10  11  12  13  14  15  25  28  32  33  34  35 0
 6-311+G(2d,p)
 ****
 36  39  40 0
 6-311+G(2d,p)
 ****
 1  2  3  4  5  16  17  18  19  20  21  22  23  24 0
 3-21G
 ****
 26  27  29  30  31  37  38  41  42  43  44  45  46  47  48 0
 3-21G
 ****


