%nproc=1
%NoSave
%Mem=1900MB
#P OB98/GEN NMR

erre ene a

0 1
  C     -805.477    -481.437    -167.643
  O     -806.588    -482.319    -167.824
  P     -806.665    -483.080    -169.236
  C     -809.204    -483.516    -169.569
  O     -807.940    -484.054    -169.201
  C     -810.310    -484.557    -169.369
  O     -810.050    -485.784    -170.081
  C     -810.514    -484.955    -167.915
  O     -811.273    -483.965    -167.244
  C     -811.243    -486.285    -168.053
  O     -812.660    -486.088    -168.235
  C     -810.617    -486.883    -169.318
  N     -809.740    -491.803    -168.459
  C     -810.936    -491.110    -168.498
  N     -812.053    -491.832    -168.304
  N     -811.021    -489.824    -168.711
  C     -809.818    -489.224    -168.886
  C     -808.570    -489.805    -168.895
  C     -808.490    -491.234    -168.651
  O     -807.459    -491.894    -168.625
  N     -807.588    -488.891    -169.170
  C     -808.234    -487.733    -169.198
  N     -809.593    -487.889    -169.095
  O     -805.413    -484.074    -169.190
  O     -806.595    -482.161    -170.408
  H     -813.026    -485.662    -167.440
  H     -804.729    -483.774    -169.821
  H     -809.732    -492.790    -168.277
  H     -807.769    -486.767    -169.312
  H     -811.373    -487.354    -169.958
  H     -811.128    -486.906    -167.158
  H     -812.066    -492.832    -168.137
  H     -809.540    -485.108    -167.426
  H     -812.943    -491.349    -168.338
  H     -811.241    -484.130    -169.770
  H     -809.184    -483.198    -170.612
  H     -809.395    -482.623    -168.967
  P     -810.557    -483.110    -166.095
  C     -811.542    -483.040    -163.700
  O     -811.679    -482.656    -165.054
  O     -810.156    -481.758    -166.849
  O     -809.350    -483.766    -165.495
  H     -809.245    -481.503    -166.611
  H     -812.021    -482.279    -163.068
  H     -810.497    -483.135    -163.407
  H     -812.051    -483.996    -163.539
  H     -805.531    -480.990    -166.672
  H     -805.504    -480.672    -168.390
  H     -804.565    -481.990    -167.731

 3  4  5  6  7  8  9  10  11  12  23  26  30  31 0
 6-311+G(2d,p)
 ****
 33  35  36  37  38 0
 6-311+G(2d,p)
 ****
 1  2  13  14  15  16  17  18  19  20  21  22  24  25 0
 3-21G
 ****
 27  28  29  32  34  39  40  41  42  43  44  45  46  47  48  49 0
 3-21G
 ****


