%nproc=1
%NoSave
%Mem=1900MB
#P OB98/GEN NMR

erre ene a

0 1
  C     -142.181      53.551     151.891
  O     -140.987      54.033     151.275
  P     -140.871      54.010     149.676
  C     -139.849      51.696     149.224
  O     -141.023      52.494     149.168
  C     -140.163      50.196     149.301
  O     -140.695      49.713     148.038
  C     -138.955      49.315     149.651
  O     -139.441      48.240     150.463
  C     -138.521      48.807     148.290
  O     -137.693      47.658     148.378
  C     -139.884      48.596     147.627
  N     -139.792      48.501     146.179
  C     -139.534      47.242     145.636
  O     -139.291      46.289     146.378
  N     -139.526      47.105     144.269
  C     -139.616      48.160     143.520
  N     -139.625      47.981     142.172
  C     -139.709      49.528     144.064
  C     -139.817      49.620     145.385
  O     -139.707      54.750     149.107
  O     -142.255      54.674     149.210
  H     -138.192      46.937     148.818
  H     -142.098      55.193     148.396
  H     -139.699      50.381     143.403
  H     -139.897      50.578     145.879
  H     -140.366      47.685     148.007
  H     -137.957      49.590     147.767
  H     -138.171      49.849     150.195
  H     -140.946      50.056     150.057
  H     -139.536      47.040     141.813
  H     -139.262      51.984     150.101
  H     -139.744      48.748     141.522
  H     -139.222      51.922     148.353
  P     -139.964      48.563     151.945
  C     -137.954      47.925     153.462
  O     -138.697      48.952     152.842
  O     -140.318      47.093     152.491
  O     -141.165      49.446     152.042
  H     -140.989      47.171     153.196
  H     -136.991      48.334     153.784
  H     -137.763      47.098     152.772
  H     -138.491      47.555     154.340
  H     -142.094      53.637     152.954
  H     -142.329      52.525     151.627
  H     -143.015      54.130     151.554

 3  4  5  6  7  8  9  10  11  12  13  23  27  28  29  30  32 0
 6-311+G(2d,p)
 ****
 34  35 0
 6-311+G(2d,p)
 ****
 1  2  14  15  16  17  18  19  20  21  22  24  25  26 0
 3-21G
 ****
 31  33  36  37  38  39  40  41  42  43  44  45  46 0
 3-21G
 ****


