%nproc=1
%NoSave
%Mem=1900MB
#P OB98/GEN NMR

erre ene a

0 1
  C     -199.160     -34.717     280.394
  O     -199.129     -34.677     281.809
  H     -198.425     -35.449     280.047
  H     -198.904     -33.742     279.970
  H     -200.150     -35.022     280.045
  P     -200.012     -33.565     282.554
  C     -201.057     -34.891     284.516
  O     -201.240     -34.359     283.207
  C     -202.121     -35.945     284.805
  O     -201.971     -37.066     283.913
  C     -202.028     -36.520     286.213
  O     -202.540     -35.611     287.165
  C     -202.812     -37.809     286.047
  O     -204.224     -37.570     286.096
  C     -202.377     -38.255     284.631
  N     -201.304     -39.245     284.656
  C     -201.223     -40.088     283.542
  O     -202.020     -39.976     282.614
  N     -200.248     -41.057     283.530
  C     -199.424     -41.164     284.522
  N     -198.484     -42.142     284.445
  C     -199.466     -40.284     285.706
  C     -200.426     -39.359     285.710
  O     -200.412     -32.367     281.746
  O     -199.121     -33.164     283.822
  H     -204.647     -38.427     285.888
  H     -198.523     -32.428     283.600
  H     -198.753     -40.404     286.509
  H     -200.525     -38.670     286.541
  H     -203.229     -38.682     284.086
  H     -202.571     -38.526     286.827
  H     -200.990     -36.781     286.444
  H     -203.108     -35.500     284.625
  H     -198.499     -42.730     283.619
  H     -201.148     -34.058     285.220
  H     -197.737     -42.263     285.113
  H     -200.055     -35.324     284.618
  P     -201.584     -34.521     287.853
  C     -203.320     -32.616     287.845
  O     -202.090     -33.099     287.307
  O     -200.121     -34.780     287.709
  O     -202.082     -34.518     289.376
  H     -201.777     -35.327     289.858
  H     -203.552     -31.667     287.408
  H     -203.227     -32.508     288.905
  H     -204.103     -33.311     287.625

 6  7  8  9  10  11  12  13  14  15  16  26  30  31  32  33  35 0
 6-311+G(2d,p)
 ****
 37  38 0
 6-311+G(2d,p)
 ****
 1  2  3  4  5  17  18  19  20  21  22  23  24  25 0
 3-21G
 ****
 27  28  29  34  36  39  40  41  42  43  44  45  46 0
 3-21G
 ****


