%nproc=1
%NoSave
%Mem=1900MB
#P OB98/GEN NMR

erre ene a

0 1
  C      469.684     484.596    1153.714
  O      470.552     485.507    1153.079
  H      469.802     484.692    1154.796
  H      469.922     483.574    1153.421
  H      468.648     484.832    1153.455
  P      470.555     485.500    1151.476
  C      468.118     486.367    1151.657
  O      468.999     485.414    1151.071
  C      466.856     486.525    1150.804
  O      467.112     487.352    1149.661
  C      466.307     485.212    1150.263
  O      465.500     484.568    1151.241
  C      465.473     485.708    1149.101
  O      464.201     486.186    1149.578
  C      466.302     486.887    1148.557
  N      467.442     488.060    1143.691
  C      466.413     488.436    1144.480
  N      466.144     488.035    1145.756
  C      467.074     487.182    1146.202
  C      468.179     486.704    1145.492
  C      468.348     487.196    1144.193
  N      469.400     486.811    1143.378
  N      468.905     485.835    1146.274
  C      468.292     485.824    1147.434
  N      467.157     486.592    1147.419
  O      471.456     484.503    1150.824
  O      470.906     487.032    1151.156
  H      464.369     486.999    1150.096
  H      470.440     487.625    1151.777
  H      465.711     489.140    1144.041
  H      468.634     485.288    1148.321
  H      465.660     487.731    1148.254
  H      465.260     484.925    1148.367
  H      467.108     484.554    1149.885
  H      466.107     487.050    1151.417
  H      468.613     487.349    1151.749
  H      469.343     487.054    1142.397
  H      470.002     486.057    1143.704
  H      467.864     486.019    1152.660
  P      465.343     482.976    1151.267
  C      467.386     482.469    1152.750
  O      466.834     482.402    1151.430
  O      464.553     482.416    1150.129
  O      464.670     482.657    1152.685
  H      464.306     481.764    1152.696
  H      468.376     482.063    1152.744
  H      466.773     481.905    1153.422
  H      467.421     483.489    1153.070

 6  7  8  9  10  11  12  13  14  15  25  28  32  33  34  35 0
 6-311+G(2d,p)
 ****
 36  39  40 0
 6-311+G(2d,p)
 ****
 1  2  3  4  5  16  17  18  19  20  21  22  23  24 0
 3-21G
 ****
 26  27  29  30  31  37  38  41  42  43  44  45  46  47 0
 3-21G
 ****
 48 0
 3-21G
 ****


