%nproc=1
%NoSave
%Mem=1900MB
#P OB98/GEN NMR

erre ene a

0 1
  C       31.383     -37.285     -22.235
  O       32.285     -36.273     -22.620
  P       32.802     -36.067     -24.114
  C       34.328     -37.368     -25.796
  O       33.815     -37.257     -24.472
  C       35.059     -38.703     -25.996
  O       34.120     -39.783     -25.757
  C       35.566     -38.861     -27.439
  O       36.868     -39.421     -27.540
  C       34.427     -39.614     -28.118
  O       34.815     -40.273     -29.315
  C       33.935     -40.515     -26.988
  N       30.625     -43.830     -28.964
  C       32.003     -43.905     -28.909
  N       32.575     -44.896     -29.628
  N       32.747     -43.061     -28.239
  C       32.044     -42.057     -27.663
  C       30.679     -41.881     -27.648
  C       29.868     -42.837     -28.365
  O       28.651     -42.745     -28.536
  N       30.323     -40.712     -27.025
  C       31.475     -40.163     -26.690
  N       32.549     -40.928     -27.087
  O       33.183     -34.676     -24.507
  O       31.492     -36.475     -24.970
  H       34.073     -40.844     -29.590
  H       31.485     -35.911     -25.770
  H       30.112     -44.464     -29.567
  H       31.590     -39.207     -26.190
  H       34.519     -41.432     -26.925
  H       33.664     -38.877     -28.393
  H       32.039     -45.466     -30.269
  H       35.676     -37.880     -27.917
  H       33.573     -44.821     -29.805
  H       35.863     -38.787     -25.257
  H       35.026     -36.532     -25.926
  H       33.526     -37.253     -26.530
  P       37.936     -39.269     -28.719
  C       38.490     -40.402     -30.953
  O       37.580     -40.322     -29.872
  O       39.302     -39.847     -28.119
  O       38.138     -37.870     -29.200
  H       40.051     -39.298     -28.419
  H       38.008     -40.932     -31.781
  H       39.379     -40.961     -30.645
  H       38.782     -39.404     -31.291
  H       31.193     -37.213     -21.184
  H       31.806     -38.243     -22.456
  H       30.465     -37.168     -22.772

 3  4  5  6  7  8  9  10  11  12  23  26  30  31 0
 6-311+G(2d,p)
 ****
 33  35  36  37  38 0
 6-311+G(2d,p)
 ****
 1  2  13  14  15  16  17  18  19  20  21  22  24  25 0
 3-21G
 ****
 27  28  29  32  34  39  40  41  42  43  44  45  46  47  48  49 0
 3-21G
 ****


