%nproc=1
%NoSave
%Mem=1900MB
#P OB98/GEN NMR

erre ene a

0 1
  C      560.149     307.778      51.666
  O      560.938     307.484      52.804
  H      560.134     306.922      50.987
  H      559.123     307.990      51.990
  H      560.547     308.656      51.148
  P      562.473     307.106      52.543
  C      562.967     308.416      54.741
  O      563.190     307.240      53.977
  C      562.560     308.028      56.158
  O      561.213     307.513      56.173
  C      563.439     306.929      56.772
  O      564.652     307.427      57.310
  C      562.516     306.413      57.866
  O      562.526     307.320      58.982
  C      561.145     306.440      57.158
  N      557.896     302.479      57.021
  C      557.927     303.603      57.784
  N      558.812     304.618      57.745
  C      559.736     304.401      56.785
  C      559.831     303.313      55.942
  C      558.856     302.315      56.080
  N      558.845     301.152      55.329
  N      560.929     303.437      55.110
  C      561.480     304.593      55.443
  N      560.814     305.198      56.484
  O      563.050     308.376      51.741
  O      562.723     305.811      51.846
  H      561.971     306.924      59.676
  H      563.915     308.159      51.328
  H      557.130     303.693      58.527
  H      562.367     305.025      54.985
  H      560.325     306.673      57.845
  H      562.823     305.427      58.241
  H      563.623     306.123      56.047
  H      562.582     308.931      56.791
  H      562.161     309.003      54.276
  H      558.190     300.431      55.608
  H      559.633     300.955      54.731
  H      563.885     309.020      54.761
  P      566.024     306.893      56.677
  C      567.271     308.867      57.815
  O      567.209     307.461      57.587
  O      566.155     307.752      55.318
  O      566.056     305.418      56.404
  H      566.598     307.237      54.617
  H      568.112     309.091      58.437
  H      566.373     309.190      58.299
  H      567.374     309.376      56.879

 6  7  8  9  10  11  12  13  14  15  25  28  32  33  34  35 0
 6-311+G(2d,p)
 ****
 36  39  40 0
 6-311+G(2d,p)
 ****
 1  2  3  4  5  16  17  18  19  20  21  22  23  24 0
 3-21G
 ****
 26  27  29  30  31  37  38  41  42  43  44  45  46  47 0
 3-21G
 ****
 48 0
 3-21G
 ****


