%nproc=1
%NoSave
%Mem=1900MB
#P OB98/GEN NMR

erre ene a

0 1
  C        6.704    -114.297     -77.432
  O        5.368    -114.705     -77.686
  P        4.991    -116.239     -77.410
  C        5.566    -116.764     -79.876
  O        4.608    -116.878     -78.833
  C        4.942    -117.102     -81.225
  O        5.864    -116.712     -82.280
  C        4.625    -118.594     -81.418
  O        3.335    -118.727     -82.029
  C        5.663    -119.049     -82.429
  O        5.224    -120.182     -83.171
  C        5.824    -117.773     -83.255
  N        7.837    -119.447     -87.573
  C        6.524    -119.466     -87.146
  N        5.633    -120.069     -87.964
  N        6.119    -118.946     -86.018
  C        7.113    -118.349     -85.315
  C        8.447    -118.257     -85.637
  C        8.890    -118.890     -86.860
  O       10.052    -118.987     -87.250
  N        9.143    -117.560     -84.683
  C        8.235    -117.234     -83.784
  N        6.996    -117.733     -84.099
  O        3.586    -116.129     -76.651
  O        5.982    -117.004     -76.602
  H        5.861    -120.312     -83.898
  H        3.639    -116.588     -75.791
  H        8.096    -119.878     -88.442
  H        8.433    -116.672     -82.880
  H        4.946    -117.616     -83.895
  H        6.587    -119.311     -81.904
  H        5.871    -120.458     -88.862
  H        4.659    -119.183     -80.496
  H        4.662    -120.073     -87.678
  H        4.037    -116.495     -81.353
  H        6.394    -117.453     -79.681
  H        5.955    -115.741     -79.888
  P        2.257    -119.595     -81.215
  C        3.094    -121.792     -82.336
  O        2.013    -120.915     -82.087
  O        0.902    -118.764     -81.392
  O        2.613    -119.813     -79.782
  H        0.286    -118.955     -80.659
  H        3.979    -121.534     -81.746
  H        3.353    -121.745     -83.396
  H        2.790    -122.811     -82.088
  H        6.809    -113.257     -77.659
  H        7.373    -114.865     -78.044
  H        6.937    -114.462     -76.401

 3  4  5  6  7  8  9  10  11  12  23  26  30  31  33  0
 6-311+G(2d,p)
 ****
 35  36  37  38 0
 6-311+G(2d,p)
 ****
 1  2  13  14  15  16  17  18  19  20  21  22  24  25  27  28  29 0
 3-21G
 ****
 32  34  39  40  41  42  43  44  45  46  47  48  49 0
 3-21G
 ****


