%nproc=1
%NoSave
%Mem=1900MB
#P OB98/GEN NMR

erre ene a

0 1
  C      -16.102    -202.462     327.943
  O      -15.539    -201.146     327.838
  P      -14.778    -200.805     326.462
  C      -12.890    -199.629     327.804
  O      -13.811    -199.546     326.724
  C      -11.814    -198.543     327.716
  O      -10.878    -198.882     326.663
  C      -12.344    -197.136     327.416
  O      -11.559    -196.185     328.148
  C      -12.020    -196.949     325.942
  O      -11.946    -195.573     325.576
  C      -10.701    -197.709     325.849
  N       -8.642    -196.127     321.508
  C       -8.711    -195.490     322.734
  N       -8.178    -194.252     322.806
  N       -9.259    -196.029     323.797
  C       -9.721    -197.283     323.587
  C       -9.700    -198.020     322.424
  C       -9.130    -197.398     321.246
  O       -9.083    -197.885     320.120
  N      -10.271    -199.257     322.603
  C      -10.636    -199.266     323.869
  N      -10.336    -198.089     324.505
  O      -15.947    -200.214     325.539
  O      -14.128    -201.990     325.825
  H      -11.577    -195.539     324.671
  H      -16.005    -200.728     324.709
  H       -8.228    -195.658     320.719
  H      -11.148    -200.079     324.368
  H       -9.874    -197.124     326.276
  H      -12.805    -197.423     325.338
  H       -7.685    -193.809     322.045
  H      -13.406    -196.994     327.639
  H       -8.181    -193.789     323.708
  H      -11.252    -198.544     328.660
  H      -12.410    -200.612     327.792
  H      -13.446    -199.540     328.744
  P      -11.969    -195.953     329.684
  C      -11.434    -193.407     329.703
  O      -11.108    -194.695     330.182
  O      -11.300    -197.196     330.436
  O      -13.443    -195.873     329.919
  H      -11.797    -197.409     331.248
  H      -12.391    -193.390     329.174
  H      -10.644    -193.076     329.020
  H      -11.486    -192.718     330.549
  H      -16.579    -202.571     328.895
  H      -15.325    -203.191     327.848
  H      -16.822    -202.605     327.165

 3  4  5  6  7  8  9  10  11  12  23  26  30  31  33  0
 6-311+G(2d,p)
 ****
 35  36  37  38 0
 6-311+G(2d,p)
 ****
 1  2  13  14  15  16  17  18  19  20  21  22  24  25  27  28  29 0
 3-21G
 ****
 32  34  39  40  41  42  43  44  45  46  47  48  49 0
 3-21G
 ****


