%nproc=1
%NoSave
%Mem=1900MB
#P OB98/GEN NMR

erre ene a

0 1
  C     -984.370    -878.340    -898.030
  O     -985.556    -879.103    -897.760
  P     -985.553    -880.668    -898.160
  C     -986.163    -881.883    -895.880
  O     -985.180    -881.541    -896.870
  C     -986.024    -880.929    -894.660
  O     -986.195    -879.570    -895.060
  C     -986.979    -881.232    -893.520
  O     -986.489    -882.225    -892.620
  C     -987.139    -879.838    -892.910
  O     -985.994    -879.551    -892.030
  C     -987.103    -878.939    -894.130
  N     -988.428    -878.660    -894.830
  C     -989.171    -877.519    -894.490
  O     -988.844    -876.688    -893.700
  N     -990.345    -877.352    -895.250
  C     -990.766    -878.109    -896.300
  O     -991.790    -877.887    -896.950
  C     -989.849    -879.226    -896.680
  C     -988.809    -879.419    -895.970
  O     -984.227    -880.815    -899.100
  O     -986.767    -881.116    -898.880
  H     -985.198    -879.636    -892.620
  H     -984.477    -881.055    -900.000
  H     -990.948    -876.596    -894.980
  H     -990.154    -879.778    -897.570
  H     -988.116    -880.269    -896.250
  H     -986.752    -877.906    -893.850
  H     -988.036    -879.806    -892.220
  H     -987.983    -881.500    -893.960
  H     -984.946    -881.010    -894.260
  H     -986.028    -882.904    -895.550
  H     -987.159    -881.795    -896.320
  P     -987.461    -883.405    -892.160
  C     -985.980    -885.322    -893.120
  O     -987.230    -884.597    -893.240
  O     -988.945    -883.046    -891.950
  O     -986.788    -883.940    -890.860
  H     -987.181    -883.566    -890.060
  H     -986.004    -886.214    -893.740
  H     -985.869    -885.625    -892.060
  H     -985.142    -884.659    -893.380
  H     -984.517    -877.328    -897.714
  H     -984.164    -878.360    -899.080
  H     -983.544    -878.763    -897.497

 3  4  5  6  7  8  9  10  11  12  13  23  28  29  30  31  32 0
 6-311+G(2d,p)
 ****
 33  34 0
 6-311+G(2d,p)
 ****
 1  2  14  15  16  17  18  19  20  21  22  24  25  26  27 0
 3-21G
 ****
 35  36  37  38  39  40  41  42  43  44  45 0
 3-21G
 ****


