%nproc=1
%NoSave
%Mem=1900MB
#P OB98/GEN NMR

erre ene a

0 1
  C      719.818    -231.367     464.725
  O      718.984    -232.472     464.354
  P      719.459    -233.936     464.808
  C      717.573    -234.556     466.518
  O      718.908    -234.121     466.303
  C      716.748    -233.427     467.137
  O      716.701    -232.282     466.251
  C      715.299    -233.790     467.399
  O      715.172    -234.642     468.533
  C      714.677    -232.407     467.569
  O      714.920    -231.910     468.894
  C      715.468    -231.580     466.538
  N      714.712    -231.308     465.319
  C      714.877    -230.037     464.776
  O      715.586    -229.170     465.288
  N      714.173    -229.789     463.629
  C      713.324    -230.650     463.006
  O      712.727    -230.371     461.971
  C      713.156    -231.959     463.651
  C      713.845    -232.230     464.762
  O      721.032    -233.711     464.989
  O      719.077    -235.003     463.836
  H      721.251    -232.826     465.326
  H      715.871    -232.068     469.075
  H      714.285    -228.877     463.213
  H      712.467    -232.661     463.194
  H      713.732    -233.189     465.257
  H      715.761    -230.617     466.971
  H      713.593    -232.416     467.417
  H      714.870    -234.285     466.519
  H      717.240    -233.121     468.071
  H      717.563    -235.416     467.194
  H      717.147    -234.876     465.563
  P      714.654    -236.141     468.258
  C      716.662    -237.420     469.335
  O      715.962    -237.061     468.168
  O      714.151    -236.023     466.743
  O      713.608    -236.594     469.225
  H      714.770    -235.538     466.177
  H      717.279    -238.297     469.119
  H      715.985    -237.658     470.159
  H      717.320    -236.592     469.636
  H      719.387    -230.457     464.362
  H      720.791    -231.496     464.299
  H      719.898    -231.323     465.791

 3  4  5  6  7  8  9  10  11  12  13  24  28  29  30  31  32 0
 6-311+G(2d,p)
 ****
 33  34 0
 6-311+G(2d,p)
 ****
 1  2  14  15  16  17  18  19  20  21  22  23  25  26  27 0
 3-21G
 ****
 35  36  37  38  39  40  41  42  43  44  45 0
 3-21G
 ****


