%nproc=1
%NoSave
%Mem=1900MB
#P OB98/GEN NMR

erre ene a

0 1
  C     -128.480      -3.847     163.371
  O     -129.083      -3.725     164.648
  P     -130.682      -3.718     164.734
  C     -131.054      -1.423     163.580
  O     -131.239      -2.829     163.519
  C     -131.939      -0.803     164.663
  O     -131.618       0.607     164.807
  C     -133.437      -0.898     164.359
  O     -134.162      -1.056     165.590
  C     -133.774       0.471     163.809
  O     -135.161       0.770     163.961
  C     -132.840       1.352     164.639
  N     -133.531       6.343     165.009
  C     -133.695       5.362     165.967
  N     -134.193       5.761     167.157
  N     -133.392       4.106     165.776
  C     -132.909       3.854     164.535
  C     -132.688       4.745     163.508
  C     -133.042       6.129     163.729
  O     -132.948       7.041     162.912
  N     -132.158       4.121     162.409
  C     -132.094       2.848     162.750
  N     -132.575       2.631     164.017
  O     -130.967      -2.811     166.023
  O     -131.304      -5.066     164.880
  H     -135.653       0.105     163.443
  H     -131.238      -3.376     166.771
  H     -133.792       7.298     165.200
  H     -131.738       2.047     162.116
  H     -133.250       1.542     165.638
  H     -133.530       0.517     162.742
  H     -134.509       6.700     167.344
  H     -133.711      -1.706     163.672
  H     -134.364       5.054     167.861
  H     -131.707      -1.283     165.621
  H     -131.314      -0.986     162.615
  H     -130.001      -1.201     163.783
  P     -135.269      -2.220     165.610
  C     -137.106      -0.378     165.571
  O     -136.599      -1.568     165.004
  O     -135.601      -2.384     167.166
  O     -134.823      -3.499     164.984
  H     -135.931      -3.284     167.348
  H     -137.073       0.415     164.817
  H     -136.538      -0.059     166.448
  H     -138.146      -0.542     165.867
  H     -127.415      -3.836     163.477
  H     -128.785      -3.029     162.753
  H     -128.784      -4.768     162.920

 3  4  5  6  7  8  9  10  11  12  23  26  30  31 0
 6-311+G(2d,p)
 ****
 33  35  36  37  38 0
 6-311+G(2d,p)
 ****
 1  2  13  14  15  16  17  18  19  20  21  22  24  25 0
 3-21G
 ****
 27  28  29  32  34  39  40  41  42  43  44  45  46  47  48  49 0
 3-21G
 ****


