%nproc=1
%NoSave
%Mem=1900MB
#P OB98/GEN NMR

erre ene a

0 1
  C      -63.724      39.502     -45.111
  O      -62.965      38.829     -46.101
  P      -62.707      37.257     -45.901
  C      -64.275      35.187     -45.900
  O      -64.136      36.576     -45.639
  C      -64.966      34.479     -44.733
  O      -64.029      34.376     -43.624
  C      -66.222      35.193     -44.207
  O      -67.134      34.171     -43.791
  C      -65.675      35.961     -43.017
  O      -66.669      36.407     -42.111
  C      -64.684      34.940     -42.466
  N      -63.965      36.876     -37.791
  C      -65.044      36.305     -38.372
  N      -65.158      35.804     -39.620
  C      -63.998      35.927     -40.288
  C      -62.823      36.502     -39.835
  C      -62.831      36.993     -38.519
  N      -61.730      37.584     -37.931
  N      -61.852      36.472     -40.812
  C      -62.430      35.889     -41.842
  N      -63.719      35.524     -41.565
  O      -62.000      37.188     -44.468
  O      -61.878      36.612     -46.967
  H      -67.205      35.650     -41.805
  H      -61.294      36.514     -44.455
  H      -65.933      36.241     -37.753
  H      -61.970      35.722     -42.806
  H      -65.188      34.123     -41.936
  H      -65.149      36.853     -43.380
  H      -66.709      35.823     -44.958
  H      -65.215      33.458     -45.046
  H      -63.284      34.742     -46.032
  H      -61.896      38.078     -37.067
  H      -60.969      37.850     -38.543
  H      -64.834      35.047     -46.831
  P      -68.709      34.413     -43.979
  C      -70.193      34.847     -46.030
  O      -68.871      34.697     -45.551
  O      -68.865      35.885     -43.368
  O      -69.603      33.388     -43.371
  H      -68.216      36.503     -43.751
  H      -70.152      35.131     -47.085
  H      -70.713      35.631     -45.472
  H      -70.732      33.900     -45.939
  H      -63.815      40.535     -45.373
  H      -63.232      39.416     -44.165
  H      -64.698      39.063     -45.048

 3  4  5  6  7  8  9  10  11  12  22  25  29  30  31  32 0
 6-311+G(2d,p)
 ****
 33  36  37 0
 6-311+G(2d,p)
 ****
 1  2  13  14  15  16  17  18  19  20  21  23  24  26 0
 3-21G
 ****
 27  28  34  35  38  39  40  41  42  43  44  45  46  47  48 0
 3-21G
 ****


