%nproc=1
%NoSave
%Mem=1900MB
#P OB98/GEN NMR

erre ene a

0 1
  C      253.013     366.265      20.101
  O      251.923     365.518      20.657
  P      251.953     364.978      22.173
  C      253.386     362.930      21.576
  O      253.260     364.066      22.420
  C      254.356     361.873      22.118
  O      255.702     362.418      22.237
  C      253.998     361.313      23.504
  O      254.469     359.961      23.515
  C      254.827     362.175      24.430
  O      255.010     361.610      25.724
  C      256.106     362.309      23.617
  N      259.703     364.028      26.844
  C      259.257     362.786      26.571
  N      258.321     362.404      25.678
  C      257.863     363.455      24.984
  C      258.227     364.785      25.137
  C      259.189     365.066      26.129
  N      259.611     366.338      26.440
  N      257.519     365.595      24.265
  C      256.733     364.766      23.612
  N      256.904     363.462      24.003
  O      250.675     364.342      22.615
  O      252.247     366.285      23.050
  H      255.573     362.220      26.242
  H      251.641     366.299      23.817
  H      259.703     361.988      27.165
  H      256.006     365.056      22.860
  H      256.732     361.419      23.713
  H      254.321     363.147      24.561
  H      252.924     361.353      23.719
  H      254.412     361.061      21.385
  H      253.730     363.262      20.587
  H      260.231     366.446      27.229
  H      259.149     367.126      26.010
  H      252.392     362.481      21.446
  P      253.517     358.725      23.156
  C      253.311     357.771      25.518
  O      252.632     358.431      24.456
  O      254.221     357.535      22.583
  O      252.453     359.327      22.115
  H      252.036     358.605      21.618
  H      253.429     356.706      25.286
  H      252.711     357.873      26.438
  H      254.287     358.218      25.690
  H      252.788     366.524      19.087
  H      253.903     365.671      20.128
  H      253.162     367.157      20.672

 3  4  5  6  7  8  9  10  11  12  22  25  29  30  31  32 0
 6-311+G(2d,p)
 ****
 33  36  37 0
 6-311+G(2d,p)
 ****
 1  2  13  14  15  16  17  18  19  20  21  23  24  26 0
 3-21G
 ****
 27  28  34  35  38  39  40  41  42  43  44  45  46  47  48 0
 3-21G
 ****


