%nproc=1
%NoSave
%Mem=1900MB
#P OB98/GEN NMR

erre ene a

0 1
  C      902.257      93.727    -174.078
  O      903.475      93.413    -174.729
  H      901.652      94.348    -174.755
  H      902.437      94.291    -173.156
  H      901.695      92.813    -173.853
  P      904.568      92.563    -173.915
  C      906.108      94.575    -173.410
  O      905.261      93.573    -172.869
  C      906.711      95.431    -172.289
  O      907.298      94.522    -171.324
  C      907.797      96.390    -172.774
  O      907.577      97.749    -172.399
  C      909.091      95.725    -172.314
  O      910.177      96.613    -172.115
  C      908.651      94.960    -171.056
  N      909.506      93.824    -170.725
  C      910.431      93.997    -169.710
  O      910.576      95.026    -169.045
  N      911.239      92.909    -169.445
  C      911.193      91.710    -170.080
  O      911.931      90.785    -169.786
  C      910.200      91.593    -171.164
  C      909.407      92.646    -171.436
  O      905.524      91.785    -174.763
  O      903.709      91.599    -172.974
  H      909.891      97.301    -171.502
  H      903.685      90.703    -173.357
  H      911.912      93.038    -168.699
  H      910.146      90.656    -171.692
  H      908.666      92.590    -172.221
  H      908.631      95.631    -170.205
  H      909.402      94.999    -173.082
  H      907.810      96.431    -173.893
  H      905.892      95.970    -171.777
  H      905.506      95.199    -174.077
  H      906.914      94.109    -173.992
  P      906.781      98.814    -173.282
  C      908.747     100.285    -174.242
  O      907.743      99.289    -174.463
  O      906.074      99.889    -172.511
  O      905.656      97.922    -174.028
  H      904.867      98.510    -174.139
  H      909.281     100.461    -175.152
  H      909.427      99.945    -173.489
  H      908.283     101.194    -173.919

 6  7  8  9  10  11  12  13  14  15  16  26  31  32  33  34  35 0
 6-311+G(2d,p)
 ****
 36  37 0
 6-311+G(2d,p)
 ****
 1  2  3  4  5  17  18  19  20  21  22  23  24  25 0
 3-21G
 ****
 27  28  29  30  38  39  40  41  42  43  44  45 0
 3-21G
 ****


