%nproc=1
%NoSave
%Mem=1900MB
#P OB98/GEN NMR

erre ene a

0 1
  C      -81.326    -193.764    -208.706
  O      -82.694    -193.705    -208.337
  P      -83.142    -194.497    -207.011
  C      -82.726    -192.414    -205.511
  O      -82.420    -193.779    -205.771
  C      -83.264    -192.234    -204.090
  O      -82.316    -192.817    -203.151
  C      -83.486    -190.772    -203.674
  O      -84.631    -190.754    -202.813
  C      -82.212    -190.466    -202.900
  O      -82.300    -189.318    -202.074
  C      -82.010    -191.796    -202.176
  N      -78.445    -189.827    -199.081
  C      -79.726    -189.466    -199.324
  N      -80.616    -190.043    -200.156
  C      -80.073    -191.110    -200.769
  C      -78.780    -191.587    -200.637
  C      -77.942    -190.895    -199.744
  N      -76.632    -191.261    -199.504
  N      -78.575    -192.686    -201.444
  C      -79.728    -192.868    -202.058
  N      -80.666    -191.955    -201.667
  O      -82.361    -195.884    -207.140
  O      -84.619    -194.696    -206.864
  H      -81.431    -189.131    -201.669
  H      -82.910    -196.630    -206.831
  H      -80.081    -188.599    -198.777
  H      -79.927    -193.633    -202.799
  H      -82.704    -191.915    -201.335
  H      -81.401    -190.286    -203.612
  H      -83.665    -190.100    -204.520
  H      -84.200    -192.801    -204.002
  H      -83.493    -192.076    -206.216
  H      -76.064    -190.593    -199.008
  H      -76.212    -191.921    -200.151
  H      -81.830    -191.805    -205.675
  P      -85.583    -189.464    -202.812
  C      -87.050    -190.870    -204.386
  O      -86.440    -189.613    -204.164
  O      -84.540    -188.318    -203.216
  O      -86.333    -189.206    -201.551
  H      -84.030    -188.560    -204.012
  H      -87.674    -190.803    -205.282
  H      -87.677    -191.144    -203.534
  H      -86.283    -191.633    -204.548
  H      -81.173    -193.196    -209.600
  H      -81.047    -194.782    -208.878
  H      -80.726    -193.358    -207.919

 3  4  5  6  7  8  9  10  11  12  22  25  29  30  31  32 0
 6-311+G(2d,p)
 ****
 33  36  37 0
 6-311+G(2d,p)
 ****
 1  2  13  14  15  16  17  18  19  20  21  23  24  26 0
 3-21G
 ****
 27  28  34  35  38  39  40  41  42  43  44  45  46  47  48 0
 3-21G
 ****


