%nproc=1
%NoSave
%Mem=1900MB
#P OB98/GEN NMR

erre ene a

0 1
  C       46.782     633.652     331.735
  O       47.597     634.749     331.381
  H       46.597     633.057     330.840
  H       45.827     634.009     332.126
  H       47.280     633.023     332.486
  P       48.162     635.704     332.550
  C       48.954     637.896     331.449
  O       49.327     636.597     331.898
  C       50.065     638.479     330.570
  O       51.242     638.731     331.358
  C       50.527     637.522     329.459
  O       49.600     637.467     328.397
  C       51.872     638.140     329.110
  O       51.716     639.245     328.208
  C       52.395     638.603     330.481
  N       53.380     637.691     331.039
  C       54.603     637.639     330.392
  O       54.885     638.309     329.384
  N       55.508     636.715     330.868
  C       55.244     635.769     331.821
  O       55.979     634.817     332.051
  C       53.953     635.923     332.522
  C       53.101     636.845     332.097
  O       48.530     635.014     333.822
  O       46.980     636.763     332.775
  H       46.476     636.518     333.573
  H       52.563     639.736     328.230
  H       56.378     636.637     330.357
  H       53.737     635.244     333.341
  H       52.127     636.964     332.585
  H       52.828     639.612     330.403
  H       52.534     637.406     328.614
  H       50.693     636.516     329.873
  H       49.719     639.427     330.143
  H       48.808     638.547     332.319
  H       48.015     637.821     330.891
  P       49.014     636.060     327.910
  C       49.586     636.879     325.527
  O       48.647     636.182     326.345
  O       47.925     635.481     328.761
  O       50.297     635.093     327.897
  H       50.079     634.272     328.361
  H       49.236     636.894     324.516
  H       50.533     636.383     325.569
  H       49.693     637.882     325.883

 6  7  8  9  10  11  12  13  14  15  16  27  31  32  33  34  35 0
 6-311+G(2d,p)
 ****
 36  37 0
 6-311+G(2d,p)
 ****
 1  2  3  4  5  17  18  19  20  21  22  23  24  25 0
 3-21G
 ****
 26  28  29  30  38  39  40  41  42  43  44  45 0
 3-21G
 ****


