%nproc=1
%NoSave
%Mem=1900MB
#P OB98/GEN NMR

erre ene a

0 1
  C     -593.060      95.605     418.795
  O     -592.833      95.506     417.408
  H     -594.086      95.957     418.948
  H     -592.377      96.330     419.244
  H     -592.949      94.628     419.272
  P     -591.343      95.196     416.881
  C     -590.412      97.581     416.731
  O     -590.433      96.376     417.492
  C     -589.637      98.693     417.449
  O     -588.287      98.234     417.736
  C     -589.520      99.984     416.643
  O     -589.827     101.104     417.489
  C     -588.045     100.027     416.232
  O     -587.609     101.355     415.965
  C     -587.402      99.316     417.425
  N     -586.052      98.843     417.123
  C     -585.765      97.505     417.430
  O     -586.621      96.802     417.980
  N     -584.521      97.010     417.165
  C     -583.601      97.793     416.672
  N     -582.381      97.242     416.438
  C     -583.842      99.220     416.361
  C     -585.081      99.671     416.601
  O     -591.228      95.008     415.405
  O     -590.880      93.913     417.726
  H     -587.714     101.889     416.789
  H     -590.132      93.463     417.252
  H     -583.049      99.830     415.957
  H     -585.348     100.704     416.398
  H     -587.341      99.975     418.296
  H     -587.914      99.436     415.317
  H     -590.175     100.021     415.770
  H     -590.113      98.860     418.426
  H     -582.263      96.258     416.656
  H     -591.442      97.897     416.543
  H     -581.595      97.751     416.060
  H     -589.926      97.377     415.767
  P     -591.386     101.421     417.697
  C     -591.301     103.764     416.577
  O     -591.850     102.451     416.550
  O     -591.415     102.297     419.041
  O     -592.239     100.196     417.827
  H     -591.671     101.738     419.795
  H     -591.697     104.333     415.762
  H     -590.236     103.707     416.489
  H     -591.558     104.239     417.501

 6  7  8  9  10  11  12  13  14  15  16  26  30  31  32  33  35 0
 6-311+G(2d,p)
 ****
 37  38 0
 6-311+G(2d,p)
 ****
 1  2  3  4  5  17  18  19  20  21  22  23  24  25 0
 3-21G
 ****
 27  28  29  34  36  39  40  41  42  43  44  45  46 0
 3-21G
 ****


