%nproc=1
%NoSave
%Mem=1900MB
#P OB98/GEN NMR

erre ene a

0 1
  C      -94.847     192.056      88.258
  O      -95.396     191.817      86.979
  H      -94.012     191.369      88.417
  H      -95.599     191.880      89.032
  H      -94.479     193.082      88.324
  P      -96.680     192.687      86.568
  C      -98.080     190.857      87.769
  O      -97.868     192.245      87.552
  C      -99.399     190.649      88.505
  O      -99.709     189.239      88.571
  C      -99.387     191.130      89.949
  O      -99.532     192.535      90.050
  C     -100.577     190.372      90.515
  O     -101.812     191.057      90.248
  C     -100.512     189.032      89.751
  N      -99.993     187.950      90.582
  C     -100.906     187.370      91.458
  O     -102.080     187.731      91.545
  N     -100.415     186.382      92.267
  C      -99.120     185.953      92.309
  O      -98.728     185.111      93.110
  C      -98.203     186.592      91.350
  C      -98.671     187.552      90.550
  O      -97.102     192.062      85.156
  O      -96.448     194.158      86.487
  H      -96.814     192.649      84.433
  H     -102.522     190.489      90.607
  H     -101.059     185.957      92.916
  H      -97.169     186.268      91.353
  H      -98.007     188.051      89.850
  H     -101.512     188.740      89.404
  H     -100.505     190.260      91.597
  H      -98.478     190.786      90.456
  H     -100.195     191.151      87.937
  H      -97.264     190.454      88.379
  H      -98.086     190.342      86.804
  P      -98.548     193.338      91.029
  C     -100.339     193.185      92.946
  O      -99.002     192.981      92.526
  O      -99.053     194.839      90.815
  O      -97.102     193.113      90.745
  H     -100.015     194.901      90.679
  H     -100.441     192.889      93.969
  H     -100.997     192.600      92.338
  H     -100.590     194.221      92.848

 6  7  8  9  10  11  12  13  14  15  16  27  31  32  33  34  35 0
 6-311+G(2d,p)
 ****
 36  37 0
 6-311+G(2d,p)
 ****
 1  2  3  4  5  17  18  19  20  21  22  23  24  25 0
 3-21G
 ****
 26  28  29  30  38  39  40  41  42  43  44  45 0
 3-21G
 ****


