%nproc=1
%NoSave
%Mem=1900MB
#P OB98/GEN NMR

erre ene a

0 1
  C     -393.226     -91.572     -86.112
  O     -394.057     -90.557     -86.640
  H     -392.964     -91.308     -85.084
  H     -392.305     -91.659     -86.695
  H     -393.754     -92.529     -86.103
  P     -394.517     -90.668     -88.170
  C     -396.662     -92.011     -87.633
  O     -395.394     -92.004     -88.282
  C     -397.691     -92.765     -88.473
  O     -398.988     -92.711     -87.845
  C     -397.884     -92.200     -89.876
  O     -396.800     -92.553     -90.709
  C     -399.222     -92.822     -90.244
  O     -399.061     -94.194     -90.636
  C     -399.981     -92.724     -88.898
  N     -400.853     -91.557     -88.804
  C     -402.047     -91.620     -89.530
  O     -402.308     -92.613     -90.210
  N     -402.902     -90.545     -89.478
  C     -402.617     -89.525     -88.735
  N     -403.507     -88.497     -88.723
  C     -401.385     -89.433     -87.928
  C     -400.551     -90.468     -88.017
  O     -393.433     -90.552     -89.197
  O     -395.607     -89.505     -88.329
  H     -398.577     -94.180     -91.485
  H     -395.191     -88.691     -88.668
  H     -401.192     -88.565     -87.313
  H     -399.623     -90.481     -87.454
  H     -400.595     -93.621     -88.739
  H     -399.704     -92.307     -91.074
  H     -398.011     -91.112     -89.833
  H     -397.388     -93.819     -88.511
  H     -404.349     -88.614     -89.279
  H     -396.968     -90.967     -87.513
  H     -403.470     -87.733     -88.067
  H     -396.583     -92.465     -86.638
  P     -396.743     -92.107     -92.249
  C     -396.069     -89.746     -91.488
  O     -396.982     -90.519     -92.252
  O     -397.632     -92.878     -93.165
  O     -395.192     -92.224     -92.618
  H     -394.941     -93.170     -92.762
  H     -396.326     -88.710     -91.566
  H     -395.077     -89.896     -91.860
  H     -396.115     -90.049     -90.463

 6  7  8  9  10  11  12  13  14  15  16  26  30  31  32  33  35 0
 6-311+G(2d,p)
 ****
 37  38 0
 6-311+G(2d,p)
 ****
 1  2  3  4  5  17  18  19  20  21  22  23  24  25 0
 3-21G
 ****
 27  28  29  34  36  39  40  41  42  43  44  45  46 0
 3-21G
 ****


