%nproc=1
%NoSave
%Mem=1900MB
#P OB98/GEN NMR

erre ene a

0 1
  C     -124.787    -173.362    -308.082
  O     -125.066    -172.095    -308.687
  P     -125.713    -170.959    -307.756
  C     -123.355    -170.447    -306.786
  O     -124.560    -169.929    -307.332
  C     -122.414    -169.299    -306.394
  O     -121.927    -168.605    -307.560
  C     -123.099    -168.233    -305.554
  O     -123.220    -168.667    -304.210
  C     -122.167    -167.039    -305.732
  O     -121.134    -167.017    -304.732
  C     -121.567    -167.276    -307.137
  N     -121.997    -166.280    -308.102
  C     -121.709    -164.948    -307.776
  O     -121.142    -164.676    -306.712
  N     -122.090    -163.961    -308.648
  C     -122.727    -164.271    -309.735
  N     -123.086    -163.248    -310.560
  C     -123.073    -165.659    -310.104
  C     -122.686    -166.606    -309.251
  O     -126.033    -171.739    -306.396
  O     -126.942    -170.335    -308.331
  H     -120.677    -167.882    -304.806
  H     -126.830    -171.372    -305.972
  H     -123.611    -165.869    -311.018
  H     -122.897    -167.652    -309.440
  H     -120.467    -167.251    -307.095
  H     -122.708    -166.097    -305.648
  H     -124.085    -167.998    -305.971
  H     -121.560    -169.721    -305.850
  H     -122.831    -162.308    -310.274
  H     -122.859    -171.097    -307.516
  H     -123.588    -163.377    -311.426
  H     -123.591    -171.072    -305.920
  P     -124.131    -169.957    -303.921
  C     -123.638    -172.434    -303.477
  O     -123.099    -171.184    -303.862
  O     -124.838    -170.188    -305.341
  O     -125.122    -169.862    -302.811
  H     -125.501    -170.900    -305.271
  H     -122.894    -173.213    -303.672
  H     -124.544    -172.663    -304.045
  H     -123.862    -172.430    -302.403
  H     -124.361    -174.019    -308.811
  H     -125.695    -173.786    -307.707
  H     -124.096    -173.228    -307.276

 3  4  5  6  7  8  9  10  11  12  13  21  23  27  28  29  30  32 0
 6-311+G(2d,p)
 ****
 34  35 0
 6-311+G(2d,p)
 ****
 1  2  14  15  16  17  18  19  20  22  24  25  26 0
 3-21G
 ****
 31  33  36  37  38  39  40  41  42  43  44  45  46 0
 3-21G
 ****


