%nproc=1
%NoSave
%Mem=1900MB
#P OB98/GEN NMR

erre ene a

0 1
  C      164.661      93.973     -97.961
  O      164.349      92.631     -97.632
  P      165.577      91.607     -97.477
  C      165.363      91.739     -94.885
  O      166.207      91.853     -96.024
  C      166.085      90.986     -93.771
  O      166.284      89.609     -94.150
  C      167.471      91.519     -93.439
  O      167.393      92.716     -92.683
  C      168.057      90.328     -92.689
  O      167.566      90.305     -91.340
  C      167.484      89.140     -93.481
  N      169.780      84.944     -95.309
  C      168.930      85.129     -94.275
  N      168.379      86.279     -93.836
  C      168.780      87.315     -94.590
  C      169.659      87.284     -95.659
  C      170.168      86.027     -96.021
  N      171.039      85.844     -97.073
  N      169.852      88.549     -96.172
  C      169.094      89.330     -95.432
  N      168.415      88.630     -94.472
  O      166.680      92.207     -98.465
  O      165.252      90.182     -97.799
  H      167.810      91.157     -90.927
  H      167.206      91.494     -98.876
  H      168.653      84.232     -93.726
  H      168.999      90.400     -95.555
  H      167.198      88.303     -92.835
  H      169.151      90.347     -92.640
  H      168.042      91.700     -94.359
  H      165.445      91.007     -92.879
  H      164.457      91.187     -95.155
  H      171.470      84.938     -97.170
  H      171.435      86.666     -97.510
  H      165.073      92.741     -94.557
  P      168.742      93.569     -92.514
  C      168.601      94.485     -94.910
  O      169.324      93.665     -94.009
  O      169.714      92.505     -91.827
  O      168.579      94.864     -91.795
  H      169.704      91.649     -92.290
  H      169.129      94.504     -95.865
  H      168.531      95.505     -94.521
  H      167.599      94.075     -95.068
  H      163.758      94.542     -98.033
  H      165.175      94.000     -98.899
  H      165.286      94.391     -97.200

 3  4  5  6  7  8  9  10  11  12  22  25  29  30  31  32 0
 6-311+G(2d,p)
 ****
 33  36  37 0
 6-311+G(2d,p)
 ****
 1  2  13  14  15  16  17  18  19  20  21  23  24  26 0
 3-21G
 ****
 27  28  34  35  38  39  40  41  42  43  44  45  46  47  48 0
 3-21G
 ****


