%nproc=1
%NoSave
%Mem=1900MB
#P OB98/GEN NMR

erre ene a

0 1
  C      704.670    -853.303    -279.525
  O      704.635    -852.322    -280.551
  H      705.625    -853.245    -279.010
  H      704.579    -854.292    -279.995
  H      703.857    -853.152    -278.814
  P      703.212    -851.958    -281.179
  C      702.295    -849.919    -282.511
  O      703.438    -850.660    -282.116
  C      702.719    -848.603    -283.175
  O      703.616    -847.891    -282.284
  C      703.443    -848.790    -284.512
  O      703.051    -847.726    -285.404
  C      704.892    -848.590    -284.149
  O      705.688    -848.187    -285.269
  C      704.758    -847.519    -283.067
  N      708.844    -844.703    -282.287
  C      707.713    -844.455    -283.022
  N      707.664    -843.285    -283.716
  N      706.688    -845.264    -283.080
  C      706.851    -846.386    -282.341
  C      707.926    -846.762    -281.577
  C      709.058    -845.857    -281.524
  O      710.117    -846.028    -280.911
  N      707.734    -848.002    -281.015
  C      706.538    -848.389    -281.461
  N      705.981    -847.426    -282.267
  O      702.398    -851.380    -279.922
  O      702.486    -853.089    -281.828
  H      706.587    -848.018    -284.940
  H      701.871    -852.084    -279.513
  H      709.618    -844.045    -282.299
  H      706.074    -849.328    -281.251
  H      704.581    -846.519    -283.484
  H      705.304    -849.509    -283.751
  H      708.394    -842.588    -283.697
  H      703.251    -849.749    -284.997
  H      706.824    -843.064    -284.220
  H      701.822    -847.977    -283.300
  H      701.691    -849.691    -281.615
  H      701.690    -850.528    -283.202
  P      701.752    -847.936    -286.335
  C      700.660    -846.814    -288.407
  O      701.753    -846.844    -287.495
  O      700.542    -847.475    -285.372
  O      701.552    -849.342    -286.774
  H      699.763    -848.009    -285.550
  H      700.811    -846.030    -289.119
  H      699.752    -846.638    -287.870
  H      700.596    -847.752    -288.918

 6  7  8  9  10  11  12  13  14  15  26  29  33  34 0
 6-311+G(2d,p)
 ****
 36  38  39  40  41 0
 6-311+G(2d,p)
 ****
 1  2  3  4  5  16  17  18  19  20  21  22  23  24  25 0
 3-21G
 ****
 27  28  30  31  32  35  37  42  43  44  45  46  47 0
 3-21G
 ****
 48  49 0
 3-21G
 ****


