%nproc=1
%NoSave
%Mem=1900MB
#P OB98/GEN NMR

erre ene a

0 1
  C     -565.380     340.099     343.369
  O     -564.220     340.753     342.895
  H     -566.015     339.845     342.514
  H     -565.942     340.760     344.035
  H     -565.116     339.175     343.895
  P     -563.072     341.150     343.940
  C     -563.175     343.678     343.464
  O     -562.387     342.493     343.392
  C     -563.084     344.466     342.159
  O     -563.920     343.830     341.165
  C     -563.533     345.929     342.292
  O     -562.686     346.739     341.476
  C     -564.936     345.915     341.719
  O     -565.322     347.189     341.197
  C     -564.830     344.824     340.655
  N     -569.210     345.527     338.226
  C     -568.066     346.301     338.239
  N     -568.091     347.447     337.533
  N     -566.985     345.984     338.911
  C     -567.091     344.799     339.569
  C     -568.161     343.945     339.627
  C     -569.357     344.317     338.897
  O     -570.406     343.680     338.853
  N     -567.890     342.852     340.417
  C     -566.653     343.058     340.844
  N     -566.125     344.228     340.361
  O     -562.108     340.057     344.277
  O     -563.874     341.647     345.232
  H     -565.020     347.867     341.845
  H     -563.909     340.942     345.908
  H     -570.016     345.821     337.704
  H     -566.101     342.398     341.495
  H     -564.430     345.205     339.703
  H     -565.653     345.631     342.502
  H     -568.883     347.751     336.984
  H     -563.508     346.287     343.328
  H     -567.260     348.022     337.512
  H     -562.048     344.411     341.791
  H     -562.805     344.286     344.296
  H     -564.220     343.404     343.663
  P     -562.377     348.245     341.936
  C     -562.766     349.000     339.500
  O     -561.922     349.080     340.645
  O     -561.500     348.392     343.130
  O     -563.847     348.833     342.221
  H     -563.785     349.515     342.919
  H     -562.356     349.597     338.712
  H     -563.742     349.361     339.750
  H     -562.834     347.982     339.178

 6  7  8  9  10  11  12  13  14  15  26  29  33  34 0
 6-311+G(2d,p)
 ****
 36  38  39  40  41 0
 6-311+G(2d,p)
 ****
 1  2  3  4  5  16  17  18  19  20  21  22  23  24  25 0
 3-21G
 ****
 27  28  30  31  32  35  37  42  43  44  45  46  47 0
 3-21G
 ****
 48  49 0
 3-21G
 ****


