%nproc=1
%NoSave
%Mem=1900MB
#P OB98/GEN NMR

erre ene a

0 1
  C      360.755    -406.151    -322.496
  O      361.450    -406.773    -321.411
  P      362.849    -406.159    -320.921
  C      362.363    -406.200    -318.389
  O      363.165    -406.711    -319.442
  C      362.361    -407.165    -317.189
  O      361.505    -408.313    -317.463
  C      363.768    -407.706    -316.872
  O      363.907    -407.930    -315.460
  C      363.759    -409.072    -317.551
  O      364.751    -409.938    -317.004
  C      362.312    -409.503    -317.307
  N      363.007    -414.344    -318.849
  C      363.562    -413.635    -317.845
  N      363.314    -412.352    -317.488
  C      362.374    -411.806    -318.266
  C      361.712    -412.417    -319.334
  C      362.067    -413.749    -319.625
  N      361.526    -414.459    -320.664
  N      360.804    -411.555    -319.908
  C      360.959    -410.418    -319.243
  N      361.867    -410.534    -318.223
  O      362.997    -404.681    -321.093
  O      363.911    -406.957    -321.823
  H      364.585    -410.825    -317.371
  H      364.602    -406.326    -322.128
  H      364.314    -414.154    -317.261
  H      360.446    -409.488    -319.464
  H      362.170    -409.878    -316.286
  H      363.957    -408.946    -318.629
  H      364.588    -407.075    -317.225
  H      361.936    -406.643    -316.316
  H      361.335    -406.055    -318.741
  H      361.923    -415.364    -320.873
  H      360.934    -413.988    -321.337
  H      362.731    -405.209    -318.098
  P      365.048    -407.056    -314.724
  C      363.834    -407.411    -312.428
  O      365.016    -407.513    -313.192
  O      364.931    -405.584    -314.985
  O      366.400    -407.703    -315.315
  H      366.432    -408.677    -315.258
  H      363.979    -407.890    -311.462
  H      363.008    -407.915    -312.939
  H      363.573    -406.356    -312.267
  H      359.848    -406.684    -322.691
  H      361.372    -406.165    -323.370
  H      360.525    -405.138    -322.238

 3  4  5  6  7  8  9  10  11  12  22  25  29  30  31  32 0
 6-311+G(2d,p)
 ****
 33  36  37 0
 6-311+G(2d,p)
 ****
 1  2  13  14  15  16  17  18  19  20  21  23  24  26 0
 3-21G
 ****
 27  28  34  35  38  39  40  41  42  43  44  45  46  47  48 0
 3-21G
 ****


