%nproc=1
%NoSave
%Mem=1900MB
#P OB98/GEN NMR

erre ene a

0 1
  C      -86.431      33.245      -6.491
  O      -87.215      33.622      -7.609
  P      -86.468      33.691      -9.032
  C      -86.857      36.259      -9.303
  O      -85.931      35.191      -9.184
  C      -86.130      37.523      -9.762
  O      -85.342      38.068      -8.685
  C      -85.170      37.305     -10.924
  O      -85.872      37.292     -12.153
  C      -84.226      38.491     -10.765
  O      -84.802      39.685     -11.329
  C      -84.109      38.604      -9.238
  N      -79.976      39.094      -6.371
  C      -80.824      40.059      -6.880
  N      -80.554      41.337      -6.535
  N      -81.844      39.797      -7.652
  C      -81.985      38.478      -7.923
  C      -81.203      37.431      -7.493
  C      -80.110      37.731      -6.598
  O      -79.391      36.905      -6.042
  N      -81.644      36.235      -7.996
  C      -82.708      36.557      -8.703
  N      -82.971      37.902      -8.674
  O      -87.673      33.598     -10.077
  O      -85.428      32.639      -9.255
  H      -84.387      40.465     -10.920
  H      -87.768      32.686     -10.415
  H      -79.217      39.355      -5.767
  H      -83.332      35.854      -9.233
  H      -84.035      39.647      -8.907
  H      -83.274      38.332     -11.278
  H      -79.772      41.617      -5.965
  H      -84.612      36.370     -10.788
  H      -81.162      42.059      -6.902
  H      -86.890      38.269     -10.028
  H      -87.320      36.443      -8.329
  H      -87.637      35.979     -10.019
  P      -85.126      36.661     -13.425
  C      -84.879      38.927     -14.666
  O      -84.231      37.819     -14.072
  O      -86.312      36.455     -14.482
  O      -84.414      35.379     -13.152
  H      -86.153      35.643     -14.997
  H      -84.233      39.803     -14.572
  H      -85.839      39.141     -14.188
  H      -85.043      38.720     -15.726
  H      -87.042      33.238      -5.613
  H      -85.632      33.945      -6.364
  H      -86.027      32.268      -6.652

 3  4  5  6  7  8  9  10  11  12  23  26  30  31 0
 6-311+G(2d,p)
 ****
 33  35  36  37  38 0
 6-311+G(2d,p)
 ****
 1  2  13  14  15  16  17  18  19  20  21  22  24  25 0
 3-21G
 ****
 27  28  29  32  34  39  40  41  42  43  44  45  46  47  48  49 0
 3-21G
 ****


