%nproc=1
%NoSave
%Mem=1900MB
#P OB98/GEN NMR

erre ene a

0 1
  C     -152.417     221.083     407.131
  O     -151.288     220.546     406.479
  P     -150.985     220.861     404.940
  C     -149.602     222.957     405.512
  O     -150.746     222.449     404.833
  C     -148.523     223.370     404.501
  O     -148.002     222.162     403.862
  C     -149.058     224.301     403.399
  O     -148.311     225.508     403.225
  C     -149.110     223.387     402.183
  O     -149.118     224.074     400.948
  C     -147.930     222.451     402.449
  N     -147.978     221.244     401.629
  C     -147.303     221.273     400.411
  O     -146.670     222.241     399.988
  N     -147.424     220.159     399.633
  C     -148.226     219.091     399.886
  O     -148.363     218.166     399.094
  C     -148.943     219.125     401.169
  C     -148.772     220.170     401.980
  O     -151.984     220.327     403.968
  O     -149.505     220.287     404.738
  H     -149.012     223.419     400.234
  H     -148.827     220.689     405.310
  H     -146.942     220.171     398.746
  H     -149.594     218.295     401.396
  H     -149.285     220.227     402.936
  H     -146.980     222.951     402.270
  H     -150.046     222.818     402.238
  H     -150.074     224.650     403.633
  H     -147.711     223.843     405.061
  H     -149.203     222.186     406.166
  H     -149.893     223.807     406.142
  P     -148.898     226.876     402.635
  C     -149.191     228.149     404.880
  O     -149.803     227.558     403.759
  O     -149.535     226.764     401.290
  O     -147.617     227.836     402.576
  H     -147.727     228.477     401.855
  H     -149.878     228.102     405.732
  H     -148.983     229.202     404.662
  H     -148.261     227.640     405.144
  H     -152.433     220.751     408.148
  H     -153.306     220.754     406.635
  H     -152.369     222.152     407.105

 3  4  5  6  7  8  9  10  11  12  13  23  28  29  30  31  32 0
 6-311+G(2d,p)
 ****
 33  34 0
 6-311+G(2d,p)
 ****
 1  2  14  15  16  17  18  19  20  21  22  24  25  26  27 0
 3-21G
 ****
 35  36  37  38  39  40  41  42  43  44  45 0
 3-21G
 ****


