%nproc=1
%NoSave
%Mem=1900MB
#P OB98/GEN NMR

erre ene a

0 1
  C     -307.331    -158.360      69.395
  O     -306.087    -158.836      68.929
  H     -307.920    -159.210      69.748
  H     -307.870    -157.875      68.577
  H     -307.204    -157.655      70.221
  P     -304.877    -157.802      68.771
  C     -304.910    -157.820      66.191
  O     -304.159    -158.098      67.366
  C     -304.295    -158.474      64.952
  O     -302.887    -158.163      64.870
  C     -304.389    -160.000      64.993
  O     -305.615    -160.546      64.540
  C     -303.236    -160.408      64.078
  O     -303.653    -160.415      62.703
  C     -302.204    -159.303      64.322
  N     -298.146    -162.322      65.058
  C     -299.022    -162.288      63.989
  N     -298.824    -163.212      63.025
  N     -300.007    -161.433      63.893
  C     -300.139    -160.633      64.978
  C     -299.345    -160.586      66.100
  C     -298.221    -161.498      66.173
  O     -297.421    -161.574      67.100
  N     -299.789    -159.636      66.990
  C     -300.890    -159.168      66.442
  N     -301.132    -159.722      65.207
  O     -303.793    -158.327      69.831
  O     -305.224    -156.366      69.023
  H     -304.022    -159.537      62.491
  H     -303.227    -157.589      70.122
  H     -297.389    -162.981      65.067
  H     -301.532    -158.411      66.882
  H     -301.738    -158.977      63.384
  H     -302.877    -161.413      64.305
  H     -298.153    -163.959      63.111
  H     -304.172    -160.368      66.002
  H     -299.589    -163.390      62.370
  H     -304.771    -158.064      64.052
  H     -304.920    -156.735      66.073
  H     -305.947    -158.142      66.319
  P     -306.450    -161.531      65.485
  C     -307.264    -162.964      63.471
  O     -307.611    -162.170      64.584
  O     -307.228    -160.519      66.449
  O     -305.632    -162.512      66.252
  H     -306.744    -160.415      67.290
  H     -308.154    -163.307      62.986
  H     -306.689    -163.805      63.798
  H     -306.685    -162.382      62.784

 6  7  8  9  10  11  12  13  14  15  26  29  33  34 0
 6-311+G(2d,p)
 ****
 36  38  39  40  41 0
 6-311+G(2d,p)
 ****
 1  2  3  4  5  16  17  18  19  20  21  22  23  24  25 0
 3-21G
 ****
 27  28  30  31  32  35  37  42  43  44  45  46  47 0
 3-21G
 ****
 48  49 0
 3-21G
 ****


