%nproc=1
%NoSave
%Mem=1900MB
#P OB98/GEN NMR

erre ene a

0 1
  C     -332.545      72.342     -48.086
  O     -331.208      72.567     -48.468
  P     -330.441      71.710     -49.571
  C     -329.334      70.045     -47.881
  O     -330.206      70.230     -48.993
  C     -328.412      68.835     -48.098
  O     -329.161      67.624     -47.804
  C     -327.953      68.735     -49.564
  O     -326.584      68.387     -49.723
  C     -328.990      67.800     -50.180
  O     -328.554      67.188     -51.388
  C     -329.281      66.856     -49.014
  N     -331.921      62.586     -49.843
  C     -330.554      62.750     -49.679
  N     -329.796      61.669     -49.937
  N     -330.003      63.879     -49.318
  C     -330.881      64.898     -49.198
  C     -332.251      64.860     -49.340
  C     -332.856      63.603     -49.706
  O     -334.042      63.438     -49.984
  N     -332.812      66.109     -49.214
  C     -331.780      66.906     -49.034
  N     -330.589      66.227     -49.045
  O     -329.308      72.375     -50.275
  O     -331.611      71.456     -50.660
  H     -329.337      66.800     -51.817
  H     -331.186      71.442     -51.539
  H     -332.283      61.706     -50.201
  H     -331.838      67.984     -48.914
  H     -328.556      66.039     -48.975
  H     -329.866      68.400     -50.428
  H     -330.178      60.828     -50.357
  H     -328.019      69.711     -50.056
  H     -328.799      61.825     -50.064
  H     -327.573      68.894     -47.397
  H     -329.978      69.873     -47.009
  H     -328.751      70.952     -47.693
  P     -325.448      69.124     -50.569
  C     -325.611      67.294     -52.369
  O     -325.589      68.687     -52.103
  O     -324.084      68.424     -50.128
  O     -325.367      70.598     -50.350
  H     -323.375      69.105     -50.057
  H     -325.440      67.132     -53.428
  H     -326.597      66.894     -52.102
  H     -324.840      66.777     -51.792
  H     -332.824      73.048     -47.332
  H     -332.643      71.349     -47.699
  H     -333.183      72.458     -48.937

 3  4  5  6  7  8  9  10  11  12  23  26  30  31 0
 6-311+G(2d,p)
 ****
 33  35  36  37  38 0
 6-311+G(2d,p)
 ****
 1  2  13  14  15  16  17  18  19  20  21  22  24  25 0
 3-21G
 ****
 27  28  29  32  34  39  40  41  42  43  44  45  46  47  48  49 0
 3-21G
 ****


