%nproc=1
%NoSave
%Mem=1900MB
#P OB98/GEN NMR

erre ene a

0 1
  C     -374.653    -392.285     327.183
  O     -374.692    -393.486     327.931
  H     -375.624    -391.791     327.264
  H     -374.457    -392.500     326.130
  H     -373.878    -391.616     327.577
  P     -373.356    -394.377     327.924
  C     -373.575    -394.847     330.460
  O     -373.496    -395.399     329.156
  C     -373.737    -395.963     331.506
  O     -375.032    -396.589     331.390
  C     -372.697    -397.077     331.381
  O     -371.485    -396.722     332.026
  C     -373.410    -398.232     332.080
  O     -373.299    -398.126     333.513
  C     -374.870    -398.019     331.633
  N     -375.916    -402.625     329.841
  C     -375.638    -402.211     331.117
  N     -375.576    -403.175     332.071
  N     -375.425    -400.965     331.458
  C     -375.484    -400.111     330.406
  C     -375.765    -400.401     329.090
  C     -376.025    -401.785     328.736
  O     -376.336    -402.212     327.628
  N     -375.754    -399.266     328.321
  C     -375.430    -398.300     329.158
  N     -375.238    -398.771     330.439
  O     -372.218    -393.362     328.415
  O     -373.010    -394.992     326.604
  H     -372.389    -398.325     333.785
  H     -371.374    -393.611     328.004
  H     -376.085    -403.598     329.645
  H     -375.321    -397.254     328.898
  H     -375.593    -398.299     332.420
  H     -372.999    -399.192     331.802
  H     -375.400    -404.152     331.831
  H     -372.527    -397.338     330.320
  H     -375.357    -402.889     333.017
  H     -373.684    -395.494     332.496
  H     -374.457    -394.191     330.518
  H     -372.675    -394.270     330.672
  P     -370.133    -397.441     331.527
  C     -368.622    -395.392     332.021
  O     -368.927    -396.754     332.321
  O     -369.955    -396.906     330.026
  O     -370.167    -398.944     331.587
  H     -369.327    -397.486     329.539
  H     -367.799    -395.070     332.624
  H     -369.476    -394.781     332.227
  H     -368.362    -395.304     330.987

 6  7  8  9  10  11  12  13  14  15  26  29  33  34 0
 6-311+G(2d,p)
 ****
 36  38  39  40  41 0
 6-311+G(2d,p)
 ****
 1  2  3  4  5  16  17  18  19  20  21  22  23  24  25 0
 3-21G
 ****
 27  28  30  31  32  35  37  42  43  44  45  46  47 0
 3-21G
 ****
 48  49 0
 3-21G
 ****


