%nproc=1
%NoSave
%Mem=1900MB
#P OB98/GEN NMR

erre ene a

0 1
  C     -199.581     159.677    -120.955
  O     -198.329     159.358    -120.379
  H     -199.982     160.562    -120.451
  H     -200.282     158.851    -120.817
  H     -199.472     159.900    -122.022
  P     -197.477     158.151    -121.005
  C     -199.077     156.567    -119.760
  O     -197.722     156.876    -120.053
  C     -199.198     155.955    -118.365
  O     -198.481     154.693    -118.341
  C     -198.622     156.841    -117.252
  O     -199.454     156.717    -116.095
  C     -197.267     156.225    -116.973
  O     -196.814     156.476    -115.643
  C     -197.526     154.749    -117.262
  N     -194.843     150.539    -116.458
  C     -196.099     150.897    -116.005
  N     -196.726     150.020    -115.194
  N     -196.687     152.022    -116.316
  C     -195.949     152.805    -117.145
  C     -194.699     152.560    -117.660
  C     -194.052     151.316    -117.299
  O     -192.940     150.952    -117.668
  N     -194.275     153.607    -118.447
  C     -195.270     154.480    -118.398
  N     -196.302     154.041    -117.614
  O     -196.037     158.455    -121.270
  O     -198.262     157.772    -122.344
  H     -196.083     155.846    -115.464
  H     -197.824     158.160    -123.122
  H     -194.437     149.662    -116.180
  H     -195.282     155.436    -118.902
  H     -197.954     154.224    -116.391
  H     -196.520     156.634    -117.671
  H     -196.343     149.125    -114.922
  H     -198.546     157.894    -117.541
  H     -197.656     150.250    -114.863
  H     -200.252     155.723    -118.173
  H     -199.438     155.850    -120.507
  H     -199.682     157.479    -119.824
  P     -200.880     157.457    -116.086
  C     -200.127     159.709    -115.077
  O     -200.880     158.519    -114.878
  O     -202.074     156.557    -116.147
  O     -200.799     158.398    -117.382
  H     -201.698     158.517    -117.739
  H     -200.205     160.330    -114.209
  H     -200.509     160.235    -115.927
  H     -199.100     159.458    -115.244

 6  7  8  9  10  11  12  13  14  15  26  29  33  34 0
 6-311+G(2d,p)
 ****
 36  38  39  40  41 0
 6-311+G(2d,p)
 ****
 1  2  3  4  5  16  17  18  19  20  21  22  23  24  25 0
 3-21G
 ****
 27  28  30  31  32  35  37  42  43  44  45  46  47 0
 3-21G
 ****
 48  49 0
 3-21G
 ****


