%nproc=1
%NoSave
%Mem=1900MB
#P OB98/GEN NMR

erre ene a

0 1
  C      -72.629     171.856    -894.640
  O      -72.830     170.918    -895.680
  H      -72.192     172.775    -895.040
  H      -73.597     172.097    -894.190
  H      -71.978     171.430    -893.870
  P      -71.522     170.407    -896.470
  C      -70.851     168.251    -895.180
  O      -71.505     168.808    -896.310
  C      -70.938     166.734    -895.230
  O      -72.240     166.290    -894.810
  C      -70.729     166.138    -896.620
  O      -69.354     166.041    -896.950
  C      -71.351     164.760    -896.420
  O      -70.441     163.910    -895.700
  C      -72.579     165.091    -895.560
  N      -75.819     163.133    -899.000
  C      -74.698     162.646    -898.440
  N      -73.883     163.229    -897.530
  C      -74.343     164.448    -897.210
  C      -75.481     165.083    -897.700
  C      -76.236     164.363    -898.630
  N      -77.376     164.858    -899.230
  N      -75.608     166.349    -897.160
  C      -74.585     166.459    -896.330
  N      -73.782     165.340    -896.340
  O      -70.313     170.882    -895.530
  O      -71.387     170.900    -897.870
  H      -70.950     163.112    -895.450
  H      -69.485     170.921    -896.040
  H      -74.397     161.636    -898.770
  H      -74.378     167.330    -895.710
  H      -72.806     164.300    -894.840
  H      -71.581     164.263    -897.370
  H      -71.294     166.700    -897.380
  H      -70.194     166.325    -894.510
  H      -71.337     168.611    -894.260
  H      -77.746     164.355    -900.000
  H      -77.609     165.839    -899.090
  H      -69.804     168.584    -895.160
  P      -68.938     166.375    -898.470
  C      -67.996     168.738    -897.930
  O      -67.726     167.419    -898.370
  O      -70.150     167.290    -899.000
  O      -68.707     165.185    -899.340
  H      -70.255     167.220    -899.960
  H      -67.088     169.303    -897.920
  H      -68.408     168.707    -896.943
  H      -68.696     169.200    -898.595

 6  7  8  9  10  11  12  13  14  15  25  28  32  33  34  35 0
 6-311+G(2d,p)
 ****
 36  39  40 0
 6-311+G(2d,p)
 ****
 1  2  3  4  5  16  17  18  19  20  21  22  23  24 0
 3-21G
 ****
 26  27  29  30  31  37  38  41  42  43  44  45  46  47 0
 3-21G
 ****
 48 0
 3-21G
 ****


