%nproc=1
%NoSave
%Mem=1900MB
#P OB98/GEN NMR

erre ene a

0 1
  C      645.729     705.603    -856.050
  O      646.363     704.344    -856.189
  P      647.654     704.161    -857.121
  C      649.507     703.482    -855.464
  O      648.916     704.550    -856.203
  C      650.883     703.871    -854.930
  O      651.800     704.054    -856.041
  C      650.906     705.161    -854.093
  O      651.911     704.971    -853.095
  C      651.354     706.200    -855.113
  O      651.868     707.379    -854.497
  C      652.363     705.384    -855.931
  N      652.618     705.985    -857.230
  C      653.209     707.251    -857.234
  O      653.405     707.842    -856.175
  N      653.501     707.843    -858.435
  C      653.144     707.267    -859.545
  N      653.466     707.900    -860.706
  C      652.409     705.987    -859.588
  C      652.188     705.398    -858.403
  O      647.596     704.866    -858.434
  O      647.797     702.570    -857.252
  H      652.694     707.154    -854.033
  H      647.135     702.220    -857.901
  H      652.081     705.564    -860.520
  H      651.670     704.460    -858.330
  H      653.308     705.288    -855.396
  H      650.503     706.497    -855.740
  H      649.941     705.412    -853.640
  H      651.264     703.035    -854.327
  H      653.978     708.762    -860.635
  H      649.613     702.626    -856.135
  H      653.303     707.498    -861.613
  H      648.839     703.183    -854.648
  P      651.797     705.695    -851.658
  C      650.085     704.378    -850.283
  O      650.297     705.478    -851.152
  O      652.286     707.102    -851.619
  O      652.649     704.748    -850.681
  H      652.850     705.231    -849.865
  H      649.111     704.492    -849.790
  H      650.868     704.310    -849.532
  H      650.066     703.457    -850.877
  H      644.893     705.510    -855.389
  H      645.391     705.940    -857.008
  H      646.424     706.310    -855.649

 3  4  5  6  7  8  9  10  11  12  13  23  27  28  29  30  32 0
 6-311+G(2d,p)
 ****
 34  35 0
 6-311+G(2d,p)
 ****
 1  2  14  15  16  17  18  19  20  21  22  24  25  26 0
 3-21G
 ****
 31  33  36  37  38  39  40  41  42  43  44  45  46 0
 3-21G
 ****


