%nproc=1
%NoSave
%Mem=1900MB
#P OB98/GEN NMR

erre ene a

0 1
  C     -199.283     308.572    -220.368
  O     -198.628     307.372    -220.735
  H     -199.884     308.912    -221.216
  H     -198.552     309.344    -220.119
  H     -199.945     308.392    -219.517
  P     -197.659     306.720    -219.636
  C     -199.390     304.828    -219.291
  O     -198.641     305.875    -218.688
  C     -200.874     304.970    -218.950
  O     -201.362     306.250    -219.387
  C     -201.770     303.928    -219.607
  O     -201.774     302.729    -218.845
  C     -203.120     304.626    -219.547
  O     -203.692     304.467    -218.232
  C     -202.752     306.102    -219.780
  N     -205.983     308.106    -223.230
  C     -206.190     307.587    -222.000
  N     -205.296     307.019    -221.165
  C     -204.067     307.031    -221.702
  C     -203.701     307.526    -222.945
  C     -204.722     308.088    -223.728
  N     -204.507     308.614    -224.984
  N     -202.350     307.361    -223.163
  C     -201.895     306.832    -222.043
  N     -202.901     306.578    -221.143
  O     -196.732     307.666    -218.944
  O     -196.942     305.576    -220.500
  H     -204.069     303.567    -218.197
  H     -197.584     305.143    -221.090
  H     -207.220     307.627    -221.642
  H     -200.854     306.632    -221.825
  H     -203.345     306.773    -219.149
  H     -203.837     304.215    -220.255
  H     -201.500     303.753    -220.654
  H     -200.973     304.940    -217.859
  H     -199.024     303.853    -218.944
  H     -205.319     308.821    -225.544
  H     -203.597     308.485    -225.399
  H     -199.238     304.890    -220.372
  P     -201.092     301.388    -219.407
  C     -199.592     300.391    -217.570
  O     -199.674     301.300    -218.665
  O     -201.056     301.288    -220.896
  O     -201.925     300.206    -218.723
  H     -201.764     299.367    -219.199
  H     -198.605     300.418    -217.157
  H     -199.808     299.400    -217.912
  H     -200.301     300.672    -216.819

 6  7  8  9  10  11  12  13  14  15  25  28  32  33  34  35 0
 6-311+G(2d,p)
 ****
 36  39  40 0
 6-311+G(2d,p)
 ****
 1  2  3  4  5  16  17  18  19  20  21  22  23  24 0
 3-21G
 ****
 26  27  29  30  31  37  38  41  42  43  44  45  46  47 0
 3-21G
 ****
 48 0
 3-21G
 ****


