%nproc=1
%NoSave
%Mem=1900MB
#P OB98/GEN NMR

erre ene a

0 1
  C      104.212     221.920     165.667
  O      105.358     221.088     165.603
  P      106.822     221.733     165.495
  C      108.028     223.231     163.778
  O      106.873     222.445     164.055
  C      108.250     223.355     162.266
  O      108.592     222.074     161.698
  C      107.024     223.835     161.496
  O      106.856     225.235     161.649
  C      107.375     223.389     160.080
  O      108.242     224.334     159.437
  C      108.112     222.055     160.331
  N      107.265     220.895     160.074
  C      107.023     220.604     158.725
  O      107.484     221.329     157.841
  N      106.219     219.530     158.415
  C      105.696     218.823     159.372
  N      104.900     217.778     159.001
  C      105.902     219.117     160.803
  C      106.689     220.155     161.080
  O      107.950     220.796     165.786
  O      106.750     222.974     166.506
  H      107.740     225.172     159.378
  H      106.774     222.673     167.451
  H      105.432     218.506     161.563
  H      106.891     220.441     162.107
  H      109.002     221.982     159.695
  H      106.482     223.286     159.452
  H      106.135     223.294     161.840
  H      109.090     224.039     162.098
  H      104.763     217.632     158.008
  H      108.896     222.739     164.227
  H      104.415     217.192     159.661
  H      107.918     224.221     164.230
  P      105.388     225.844     161.838
  C      103.440     226.552     160.318
  O      104.800     226.171     160.380
  O      105.276     226.950     162.835
  O      104.512     224.579     162.299
  H      103.935     224.846     163.038
  H      103.261     227.062     159.368
  H      103.187     227.232     161.142
  H      102.810     225.662     160.377
  H      103.334     221.313     165.735
  H      104.160     222.524     164.785
  H      104.277     222.551     166.529

 3  4  5  6  7  8  9  10  11  12  13  23  27  28  29  30  32 0
 6-311+G(2d,p)
 ****
 34  35 0
 6-311+G(2d,p)
 ****
 1  2  14  15  16  17  18  19  20  21  22  24  25  26 0
 3-21G
 ****
 31  33  36  37  38  39  40  41  42  43  44  45  46 0
 3-21G
 ****


