%nproc=1
%NoSave
%Mem=1900MB
#P OB98/GEN NMR

erre ene a

0 1
  C       14.671    -396.479    -202.473
  O       13.471    -395.951    -201.943
  P       12.470    -396.901    -201.134
  C       10.471    -396.604    -199.546
  O       11.588    -395.975    -200.169
  C        9.980    -395.767    -198.365
  O       10.949    -395.799    -197.294
  C        9.776    -394.294    -198.690
  O        8.579    -394.099    -199.418
  C        9.785    -393.681    -197.296
  O        8.498    -393.820    -196.676
  C       10.825    -394.549    -196.575
  N       13.769    -391.567    -193.666
  C       12.464    -391.907    -193.579
  N       11.740    -392.678    -194.419
  C       12.499    -393.093    -195.446
  C       13.832    -392.799    -195.691
  C       14.486    -392.013    -194.728
  N       15.830    -391.711    -194.773
  N       14.245    -393.386    -196.873
  C       13.181    -394.010    -197.334
  N       12.126    -393.915    -196.475
  O       13.104    -398.083    -200.473
  O       11.416    -397.372    -202.243
  H        7.880    -393.222    -197.145
  H       11.446    -398.346    -202.326
  H       11.935    -391.513    -192.717
  H       13.135    -394.555    -198.268
  H       10.508    -394.804    -195.556
  H       10.026    -392.616    -197.307
  H       10.636    -393.914    -199.256
  H        9.050    -396.216    -197.994
  H       10.783    -397.592    -199.199
  H       16.225    -391.266    -193.961
  H       16.430    -392.276    -195.372
  H        9.668    -396.725    -200.284
  P        8.124    -392.619    -199.824
  C        7.025    -391.499    -201.851
  O        7.454    -392.717    -201.277
  O        9.165    -391.557    -199.671
  O        6.867    -392.339    -198.873
  H        6.826    -391.388    -198.659
  H        6.076    -391.194    -201.399
  H        6.877    -391.650    -202.924
  H        7.769    -390.712    -201.704
  H       15.209    -395.704    -202.978
  H       14.441    -397.262    -203.165
  H       15.271    -396.870    -201.678

 3  4  5  6  7  8  9  10  11  12  22  25  29  30  31  32 0
 6-311+G(2d,p)
 ****
 33  36  37 0
 6-311+G(2d,p)
 ****
 1  2  13  14  15  16  17  18  19  20  21  23  24  26 0
 3-21G
 ****
 27  28  34  35  38  39  40  41  42  43  44  45  46  47  48 0
 3-21G
 ****


