%nproc=1
%NoSave
%Mem=1900MB
#P OB98/GEN NMR

erre ene a

0 1
  C       93.208      15.794      86.054
  O       92.719      16.954      86.697
  H       94.254      15.654      86.338
  H       93.152      15.904      84.968
  H       92.641      14.915      86.370
  P       91.209      17.406      86.410
  C       91.701      18.770      84.272
  O       91.097      17.606      84.822
  C       91.195      19.009      82.853
  O       91.503      17.882      82.011
  C       89.684      19.222      82.752
  O       89.345      20.558      83.075
  C       89.457      18.900      81.285
  O       89.882      20.014      80.474
  C       90.407      17.706      81.072
  N       89.700      13.061      79.152
  C       90.260      14.183      78.573
  N       90.660      14.058      77.289
  N       90.402      15.327      79.190
  C       89.893      15.325      80.443
  C       89.300      14.284      81.120
  C       89.209      13.004      80.448
  O       88.742      11.978      80.936
  N       88.822      14.684      82.342
  C       89.173      15.954      82.425
  N       89.820      16.396      81.292
  O       90.709      18.573      87.205
  O       90.345      16.085      86.674
  H       89.839      19.724      79.544
  H       90.030      16.049      87.595
  H       89.609      12.209      78.624
  H       88.991      16.596      83.279
  H       90.836      17.696      80.064
  H       88.409      18.711      81.049
  H       90.442      13.256      76.717
  H       89.136      18.497      83.363
  H       91.019      14.887      76.830
  H       91.739      19.873      82.445
  H       92.784      18.609      84.269
  H       91.480      19.644      84.893
  P       87.947      20.923      83.781
  C       87.164      21.961      81.545
  O       86.885      21.040      82.585
  O       87.993      22.102      84.690
  O       87.497      19.564      84.491
  H       87.895      19.449      85.390
  H       86.376      21.932      80.822
  H       88.089      21.699      81.075
  H       87.238      22.948      81.953

 6  7  8  9  10  11  12  13  14  15  26  29  33  34 0
 6-311+G(2d,p)
 ****
 36  38  39  40  41 0
 6-311+G(2d,p)
 ****
 1  2  3  4  5  16  17  18  19  20  21  22  23  24  25 0
 3-21G
 ****
 27  28  30  31  32  35  37  42  43  44  45  46  47 0
 3-21G
 ****
 48  49 0
 3-21G
 ****


