%nproc=1
%NoSave
%Mem=1900MB
#P OB98/GEN NMR

erre ene a

0 1
  C     -270.052     -10.379     -59.524
  O     -270.773     -11.489     -59.023
  H     -269.198     -10.196     -58.870
  H     -270.679      -9.484     -59.543
  H     -269.683     -10.597     -60.530
  P     -272.223     -11.791     -59.643
  C     -273.420     -10.356     -57.864
  O     -273.127     -10.520     -59.248
  C     -274.681      -9.520     -57.658
  O     -274.496      -8.179     -58.162
  C     -275.904     -10.047     -58.394
  O     -276.389     -11.284     -57.926
  C     -276.823      -8.835     -58.383
  O     -277.544      -8.708     -57.158
  C     -275.804      -7.676     -58.520
  N     -275.811      -7.087     -59.857
  C     -276.877      -6.247     -60.146
  O     -277.794      -6.011     -59.357
  N     -276.880      -5.706     -61.405
  C     -275.966      -5.950     -62.389
  O     -276.038      -5.447     -63.501
  C     -274.880      -6.881     -62.031
  C     -274.848      -7.396     -60.801
  O     -272.830     -13.109     -59.262
  O     -272.013     -11.611     -61.218
  H     -277.818      -7.774     -57.087
  H     -272.765     -12.007     -61.726
  H     -277.638      -5.077     -61.629
  H     -274.145      -7.107     -62.791
  H     -274.053      -8.083     -60.514
  H     -276.035      -6.878     -57.801
  H     -277.561      -8.868     -59.190
  H     -275.627     -10.213     -59.444
  H     -274.870      -9.443     -56.580
  H     -272.567      -9.841     -57.401
  H     -273.536     -11.339     -57.396
  P     -276.909     -12.452     -58.875
  C     -279.411     -12.296     -58.120
  O     -278.467     -12.203     -59.183
  O     -276.475     -13.839     -58.540
  O     -276.226     -12.055     -60.289
  H     -276.019     -12.891     -60.750
  H     -280.393     -12.103     -58.498
  H     -279.171     -11.576     -57.366
  H     -279.378     -13.279     -57.698

 6  7  8  9  10  11  12  13  14  15  16  26  31  32  33  34  35 0
 6-311+G(2d,p)
 ****
 36  37 0
 6-311+G(2d,p)
 ****
 1  2  3  4  5  17  18  19  20  21  22  23  24  25 0
 3-21G
 ****
 27  28  29  30  38  39  40  41  42  43  44  45 0
 3-21G
 ****


