%nproc=1
%NoSave
%Mem=1900MB
#P OB98/GEN NMR

erre ene a

0 1
  C       18.293    -280.173       0.732
  O       18.787    -281.491       0.561
  H       17.735    -280.132       1.672
  H       17.620    -279.910      -0.090
  H       19.124    -279.465       0.784
  P       19.613    -281.777      -0.786
  C       21.510    -282.924       0.549
  O       21.144    -281.851      -0.309
  C       22.949    -282.746       1.038
  O       23.063    -281.544       1.820
  C       23.455    -283.881       1.924
  O       23.927    -284.962       1.127
  C       24.602    -283.188       2.655
  O       25.774    -283.162       1.810
  C       24.067    -281.759       2.852
  N       24.976    -280.521       7.752
  C       25.805    -280.887       6.749
  N       25.491    -281.259       5.492
  C       24.162    -281.215       5.295
  C       23.193    -280.856       6.227
  C       23.645    -280.493       7.506
  N       22.796    -280.123       8.533
  N       21.930    -280.934       5.671
  C       22.138    -281.264       4.412
  N       23.470    -281.486       4.145
  O       19.321    -280.859      -1.931
  O       19.254    -283.318      -1.042
  H       26.374    -282.488       2.184
  H       19.255    -283.814      -0.202
  H       26.872    -280.890       6.996
  H       21.371    -281.342       3.653
  H       24.856    -281.007       2.703
  H       24.885    -283.705       3.571
  H       22.703    -284.202       2.652
  H       23.595    -282.619       0.156
  H       21.417    -283.884       0.018
  H       23.187    -280.066       9.456
  H       21.803    -280.229       8.380
  H       20.816    -282.926       1.394
  P       23.313    -286.436       1.285
  C       22.583    -286.788      -1.161
  O       22.155    -286.532       0.182
  O       22.915    -286.794       2.681
  O       24.451    -287.399       0.694
  H       24.292    -288.320       0.987
  H       21.730    -286.831      -1.805
  H       23.104    -287.722      -1.197
  H       23.235    -286.003      -1.484

 6  7  8  9  10  11  12  13  14  15  25  28  32  33  34  35 0
 6-311+G(2d,p)
 ****
 36  39  40 0
 6-311+G(2d,p)
 ****
 1  2  3  4  5  16  17  18  19  20  21  22  23  24 0
 3-21G
 ****
 26  27  29  30  31  37  38  41  42  43  44  45  46  47 0
 3-21G
 ****
 48 0
 3-21G
 ****


