%nproc=1
%NoSave
%Mem=1900MB
#P OB98/GEN NMR

erre ene a

0 1
  C      315.591     404.489      67.355
  O      314.429     405.323      67.447
  P      313.760     405.687      68.864
  C      311.295     405.178      68.352
  O      312.438     404.799      69.108
  C      309.971     404.901      69.072
  O      309.711     403.470      69.156
  C      309.892     405.433      70.513
  O      308.514     405.763      70.734
  C      310.292     404.224      71.331
  O      309.903     404.306      72.696
  C      309.597     403.118      70.545
  N      310.890     399.697      74.142
  C      310.150     400.824      74.196
  N      309.825     401.664      73.191
  C      310.295     401.219      72.020
  C      311.057     400.079      71.800
  C      311.367     399.299      72.932
  N      312.158     398.172      72.886
  N      311.394     399.960      70.461
  C      310.852     401.016      69.892
  N      310.176     401.806      70.787
  O      313.558     407.152      69.082
  O      314.792     405.111      69.946
  H      310.143     403.465      73.130
  H      314.935     405.785      70.641
  H      309.786     401.095      75.182
  H      310.936     401.272      68.843
  H      308.531     403.062      70.790
  H      311.388     404.118      71.304
  H      310.534     406.304      70.689
  H      309.161     405.330      68.467
  H      311.307     404.632      67.399
  H      312.402     397.739      73.763
  H      312.626     397.938      72.027
  H      311.368     406.249      68.121
  P      308.047     407.249      71.096
  C      307.780     407.204      73.640
  O      308.619     407.575      72.556
  O      306.582     407.507      70.921
  O      308.920     408.191      70.138
  H      308.505     409.066      70.065
  H      306.963     407.926      73.739
  H      308.374     407.206      74.567
  H      307.371     406.205      73.491
  H      315.868     404.376      66.328
  H      315.375     403.529      67.774
  H      316.397     404.940      67.894

 3  4  5  6  7  8  9  10  11  12  22  25  29  30  31  32 0
 6-311+G(2d,p)
 ****
 33  36  37 0
 6-311+G(2d,p)
 ****
 1  2  13  14  15  16  17  18  19  20  21  23  24  26 0
 3-21G
 ****
 27  28  34  35  38  39  40  41  42  43  44  45  46  47  48 0
 3-21G
 ****


