%nproc=1
%NoSave
%Mem=1900MB
#P OB98/GEN NMR

erre ene a

0 1
  C      278.030     308.780     665.901
  O      278.919     307.871     665.225
  P      280.333     307.467     665.883
  C      281.891     309.343     665.117
  O      281.153     308.813     666.217
  C      282.759     310.554     665.506
  O      283.855     310.167     666.372
  C      283.381     311.319     664.324
  O      283.414     312.688     664.716
  C      284.775     310.725     664.248
  O      285.682     311.547     663.524
  C      285.100     310.560     665.748
  N      286.145     309.573     665.967
  C      287.466     309.985     665.721
  O      287.688     311.102     665.250
  N      288.489     309.098     665.935
  C      288.218     307.882     666.285
  N      289.279     307.042     666.448
  C      286.850     307.373     666.491
  C      285.878     308.272     666.330
  O      281.093     306.434     665.125
  O      279.928     306.922     667.342
  H      286.577     311.155     663.595
  H      280.574     306.245     667.620
  H      286.660     306.345     666.757
  H      284.833     308.005     666.465
  H      285.399     311.520     666.189
  H      284.739     309.735     663.745
  H      282.827     311.197     663.380
  H      282.122     311.231     666.090
  H      290.203     307.414     666.283
  H      281.190     309.647     664.324
  H      289.175     306.045     666.620
  H      282.527     308.556     664.698
  P      282.145     313.654     664.626
  C      282.746     315.399     662.828
  O      282.088     314.187     663.098
  O      282.075     314.727     665.645
  O      280.878     312.670     664.730
  H      280.088     313.202     664.949
  H      282.817     315.550     661.749
  H      283.771     315.404     663.250
  H      282.188     316.234     663.272
  H      277.149     308.923     665.310
  H      278.521     309.720     666.042
  H      277.759     308.372     666.853

 3  4  5  6  7  8  9  10  11  12  13  23  27  28  29  30  32 0
 6-311+G(2d,p)
 ****
 34  35 0
 6-311+G(2d,p)
 ****
 1  2  14  15  16  17  18  19  20  21  22  24  25  26 0
 3-21G
 ****
 31  33  36  37  38  39  40  41  42  43  44  45  46 0
 3-21G
 ****


