%nproc=1
%NoSave
%Mem=1900MB
#P OB98/GEN NMR

erre ene a

0 1
  C      -99.940      96.919     174.944
  O     -100.084      95.856     175.862
  H     -100.215      97.850     175.444
  H     -100.599      96.775     174.085
  H      -98.902      96.995     174.610
  P      -99.802      94.360     175.360
  C     -102.259      93.672     174.975
  O     -101.004      93.967     174.373
  C     -103.316      93.412     173.896
  O     -104.565      93.109     174.565
  C     -103.537      94.626     172.984
  O     -103.424      94.310     171.599
  C     -104.859      95.198     173.482
  O     -105.580      95.932     172.514
  C     -105.589      93.967     174.027
  N     -106.590      94.276     175.045
  C     -107.890      94.519     174.611
  O     -108.263      94.482     173.441
  N     -108.797      94.814     175.597
  C     -108.536      94.901     176.932
  O     -109.392      95.166     177.767
  C     -107.139      94.661     177.325
  C     -106.245      94.366     176.380
  O      -99.526      93.363     176.434
  O      -98.557      94.514     174.365
  H     -106.427      96.203     172.929
  H      -97.749      94.184     174.802
  H     -109.745      94.977     175.297
  H     -106.894      94.735     178.376
  H     -105.206      94.180     176.635
  H     -106.093      93.430     173.221
  H     -104.649      95.882     174.313
  H     -102.750      95.374     173.135
  H     -103.025      92.523     173.324
  H     -102.548      94.531     175.590
  H     -102.161      92.791     175.618
  P     -102.077      94.381     170.750
  C     -102.491      96.679     169.541
  O     -101.731      95.915     170.468
  O     -101.988      93.447     169.589
  O     -100.937      93.947     171.806
  H     -100.245      93.488     171.289
  H     -102.102      97.675     169.496
  H     -103.513      96.709     169.856
  H     -102.430      96.228     168.572

 6  7  8  9  10  11  12  13  14  15  16  26  31  32  33  34  35 0
 6-311+G(2d,p)
 ****
 36  37 0
 6-311+G(2d,p)
 ****
 1  2  3  4  5  17  18  19  20  21  22  23  24  25 0
 3-21G
 ****
 27  28  29  30  38  39  40  41  42  43  44  45 0
 3-21G
 ****


