%nproc=1
%NoSave
%Mem=1900MB
#P OB98/GEN NMR

erre ene a

0 1
  C      147.450    -250.314    -138.604
  O      147.800    -251.073    -139.746
  H      147.300    -249.269    -138.892
  H      146.513    -250.702    -138.198
  H      148.227    -250.383    -137.837
  P      149.281    -250.881    -140.332
  C      150.786    -252.350    -141.857
  O      149.465    -251.995    -141.475
  C      150.785    -253.650    -142.658
  O      150.313    -254.723    -141.789
  C      149.881    -253.627    -143.904
  O      150.541    -254.347    -144.952
  C      148.656    -254.409    -143.458
  O      147.962    -255.002    -144.551
  C      149.276    -255.422    -142.503
  N      146.885    -259.676    -141.073
  C      148.007    -259.473    -141.795
  N      148.608    -258.301    -142.087
  C      147.971    -257.275    -141.492
  C      146.821    -257.331    -140.716
  C      146.257    -258.606    -140.532
  N      145.077    -258.817    -139.855
  N      146.443    -256.059    -140.332
  C      147.330    -255.253    -140.879
  N      148.272    -255.945    -141.592
  O      150.196    -251.422    -139.130
  O      149.642    -249.488    -140.725
  H      147.204    -255.511    -144.203
  H      150.383    -250.695    -138.510
  H      148.478    -260.361    -142.203
  H      147.321    -254.173    -140.821
  H      149.730    -256.273    -143.021
  H      147.964    -253.739    -142.935
  H      149.635    -252.618    -144.249
  H      151.816    -253.893    -142.930
  H      151.390    -252.485    -140.955
  H      144.694    -259.753    -139.860
  H      144.544    -258.024    -139.541
  H      151.222    -251.541    -142.453
  P      151.315    -253.490    -146.063
  C      153.319    -253.861    -147.688
  O      152.373    -254.444    -146.799
  O      152.239    -252.515    -145.195
  O      150.408    -252.729    -146.978
  H      152.349    -251.659    -145.654
  H      153.947    -254.627    -148.093
  H      153.919    -253.152    -147.156
  H      152.803    -253.366    -148.484

 6  7  8  9  10  11  12  13  14  15  25  28  32  33  34  35 0
 6-311+G(2d,p)
 ****
 36  39  40 0
 6-311+G(2d,p)
 ****
 1  2  3  4  5  16  17  18  19  20  21  22  23  24 0
 3-21G
 ****
 26  27  29  30  31  37  38  41  42  43  44  45  46  47 0
 3-21G
 ****
 48 0
 3-21G
 ****


