%nproc=1
%NoSave
%Mem=1900MB
#P OB98/GEN NMR

erre ene a

0 1
  C     -956.844      50.778      45.073
  O     -956.734      51.062      43.693
  H     -956.861      49.692      45.204
  H     -957.771      51.198      45.476
  H     -955.983      51.187      45.609
  P     -956.732      52.615      43.280
  C     -957.543      53.101      40.883
  O     -956.486      52.605      41.691
  C     -957.108      53.182      39.421
  O     -956.097      54.213      39.291
  C     -956.506      51.874      38.889
  O     -956.915      51.682      37.536
  C     -955.009      52.128      38.934
  O     -954.290      51.330      37.998
  C     -954.940      53.636      38.665
  N     -950.639      56.099      37.455
  C     -951.723      55.760      36.726
  N     -952.831      55.116      37.130
  C     -952.782      54.859      38.456
  C     -951.746      55.141      39.329
  C     -950.628      55.787      38.773
  N     -949.508      56.110      39.505
  N     -952.045      54.683      40.592
  C     -953.248      54.144      40.492
  N     -953.725      54.217      39.212
  O     -955.812      53.492      44.065
  O     -958.284      52.985      43.383
  H     -954.572      51.589      37.095
  H     -958.844      52.290      42.988
  H     -951.682      56.036      35.667
  H     -953.804      53.688      41.303
  H     -954.963      53.868      37.596
  H     -954.629      51.898      39.937
  H     -956.792      51.013      39.491
  H     -957.968      53.492      38.812
  H     -957.847      54.096      41.229
  H     -948.751      56.586      39.037
  H     -949.483      55.900      40.501
  H     -958.399      52.423      40.986
  P     -958.148      50.707      37.254
  C     -957.476      49.316      35.168
  O     -958.230      50.425      35.667
  O     -959.443      51.060      37.900
  O     -957.607      49.288      37.807
  H     -958.349      48.814      38.221
  H     -957.615      49.238      34.110
  H     -957.811      48.416      35.639
  H     -956.438      49.465      35.382

 6  7  8  9  10  11  12  13  14  15  25  28  32  33  34  35 0
 6-311+G(2d,p)
 ****
 36  39  40 0
 6-311+G(2d,p)
 ****
 1  2  3  4  5  16  17  18  19  20  21  22  23  24 0
 3-21G
 ****
 26  27  29  30  31  37  38  41  42  43  44  45  46  47 0
 3-21G
 ****
 48 0
 3-21G
 ****


