%nproc=1
%NoSave
%Mem=1900MB
#P OB98/GEN NMR

erre ene a

0 1
  C      534.366     350.044     848.624
  O      535.194     349.261     847.782
  H      533.376     350.109     848.174
  H      534.772     351.048     848.723
  H      534.280     349.582     849.613
  P      536.675     348.939     848.312
  C      536.393     346.432     847.666
  O      536.687     347.372     848.684
  C      537.100     345.104     847.962
  O      538.512     345.257     847.674
  C      536.971     344.677     849.434
  O      536.844     343.266     849.491
  C      538.302     345.099     850.035
  O      538.650     344.386     851.211
  C      539.248     344.859     848.858
  N      540.492     345.622     848.978
  C      541.668     345.002     848.565
  O      541.720     343.891     848.044
  N      542.820     345.707     848.775
  C      542.915     346.939     849.362
  O      543.973     347.520     849.534
  C      541.642     347.547     849.772
  C      540.511     346.864     849.574
  O      536.716     349.660     849.744
  O      537.788     349.379     847.423
  H      537.034     350.570     849.661
  H      539.496     344.765     851.548
  H      543.676     345.274     848.473
  H      541.676     348.510     850.257
  H      539.551     347.273     849.887
  H      539.472     343.797     848.762
  H      538.275     346.167     850.296
  H      536.128     345.143     849.945
  H      536.711     344.346     847.292
  H      536.751     346.831     846.701
  H      535.312     346.287     847.614
  P      535.374     342.645     849.728
  C      535.703     341.024     847.696
  O      534.923     342.052     848.303
  O      534.518     343.982     849.883
  O      535.318     341.688     850.869
  H      534.806     344.713     849.317
  H      535.264     340.749     846.760
  H      535.732     340.171     848.341
  H      536.698     341.381     847.532

 6  7  8  9  10  11  12  13  14  15  16  27  31  32  33  34  35 0
 6-311+G(2d,p)
 ****
 36  37 0
 6-311+G(2d,p)
 ****
 1  2  3  4  5  17  18  19  20  21  22  23  24  25 0
 3-21G
 ****
 26  28  29  30  38  39  40  41  42  43  44  45 0
 3-21G
 ****


