%nproc=1
%NoSave
%Mem=1900MB
#P OB98/GEN NMR

erre ene a

0 1
  C      562.931    -181.477    -247.969
  O      562.889    -182.546    -248.901
  H      563.631    -180.726    -248.324
  H      563.259    -181.838    -246.990
  H      561.939    -181.016    -247.876
  P      561.919    -183.783    -248.597
  C      564.081    -185.196    -248.771
  O      562.863    -184.964    -248.072
  C      564.741    -186.479    -248.288
  O      564.993    -186.398    -246.871
  C      563.899    -187.729    -248.514
  O      564.030    -188.180    -249.849
  C      564.532    -188.672    -247.502
  O      565.789    -189.162    -248.006
  C      564.764    -187.722    -246.306
  N      562.819    -189.540    -241.993
  C      563.956    -189.921    -242.684
  N      564.647    -190.975    -242.170
  N      564.366    -189.345    -243.785
  C      563.540    -188.366    -244.207
  C      562.377    -187.906    -243.615
  C      561.975    -188.522    -242.375
  O      560.977    -188.197    -241.715
  N      561.767    -186.949    -244.383
  C      562.581    -186.789    -245.415
  N      563.661    -187.638    -245.353
  O      561.002    -184.200    -249.707
  O      561.118    -183.333    -247.285
  H      566.110    -189.812    -247.353
  H      560.274    -182.904    -247.520
  H      562.552    -190.043    -241.157
  H      562.435    -186.079    -246.216
  H      565.663    -187.996    -245.730
  H      563.908    -189.540    -247.271
  H      564.234    -191.608    -241.513
  H      562.842    -187.571    -248.234
  H      565.456    -191.293    -242.691
  H      565.714    -186.564    -248.787
  H      564.735    -184.339    -248.596
  H      563.883    -185.268    -249.852
  P      562.888    -189.089    -250.536
  C      564.582    -190.971    -251.141
  O      563.429    -190.601    -250.385
  O      562.530    -188.696    -251.921
  O      561.672    -189.053    -249.505
  H      561.051    -188.299    -249.652
  H      564.825    -191.994    -250.943
  H      565.406    -190.348    -250.862
  H      564.379    -190.848    -252.184

 6  7  8  9  10  11  12  13  14  15  26  29  33  34 0
 6-311+G(2d,p)
 ****
 36  38  39  40  41 0
 6-311+G(2d,p)
 ****
 1  2  3  4  5  16  17  18  19  20  21  22  23  24  25 0
 3-21G
 ****
 27  28  30  31  32  35  37  42  43  44  45  46  47 0
 3-21G
 ****
 48  49 0
 3-21G
 ****


