%nproc=1
%NoSave
%Mem=1900MB
#P OB98/GEN NMR

erre ene a

0 1
  C      186.790    -169.284     -70.769
  O      187.896    -170.173     -70.688
  P      188.957    -170.177     -71.892
  C      188.645    -172.744     -72.089
  O      189.561    -171.664     -71.977
  C      189.143    -173.972     -71.327
  O      190.472    -174.318     -71.805
  C      189.242    -173.782     -69.810
  O      188.950    -175.046     -69.203
  C      190.709    -173.458     -69.600
  O      191.131    -173.704     -68.261
  C      191.342    -174.365     -70.653
  N      196.311    -174.693     -69.499
  C      195.222    -175.276     -68.953
  N      193.931    -175.139     -69.318
  C      193.817    -174.299     -70.360
  C      194.833    -173.605     -70.997
  C      196.138    -173.832     -70.528
  N      197.251    -173.248     -71.090
  N      194.321    -172.815     -72.006
  C      193.021    -173.027     -71.979
  N      192.674    -173.932     -71.017
  O      190.166    -169.317     -71.295
  O      188.463    -169.607     -73.176
  H      192.072    -173.462     -68.187
  H      190.235    -168.465     -71.773
  H      195.414    -175.944     -68.118
  H      192.296    -172.553     -72.625
  H      191.403    -175.408     -70.318
  H      190.892    -172.401     -69.823
  H      188.579    -173.007     -69.412
  H      188.484    -174.815     -71.565
  H      188.541    -173.007     -73.147
  H      198.158    -173.566     -70.791
  H      197.152    -172.756     -71.972
  H      187.667    -172.434     -71.710
  P      188.337    -175.018     -67.721
  C      190.370    -176.231     -66.662
  O      188.982    -176.252     -66.934
  O      186.814    -175.459     -67.942
  O      188.434    -173.690     -67.047
  H      186.253    -175.078     -67.244
  H      190.551    -176.733     -65.707
  H      190.760    -175.210     -66.604
  H      190.898    -176.770     -67.451
  H      186.177    -169.397     -69.899
  H      186.215    -169.509     -71.643
  H      187.146    -168.276     -70.826

 3  4  5  6  7  8  9  10  11  12  22  25  29  30  31  32 0
 6-311+G(2d,p)
 ****
 33  36  37 0
 6-311+G(2d,p)
 ****
 1  2  13  14  15  16  17  18  19  20  21  23  24  26 0
 3-21G
 ****
 27  28  34  35  38  39  40  41  42  43  44  45  46  47  48 0
 3-21G
 ****


