%nproc=1
%NoSave
%Mem=1900MB
#P OB98/GEN NMR

erre ene a

0 1
  C        9.776     337.565    -147.726
  O       10.480     337.859    -148.911
  H        8.780     337.201    -147.991
  H        9.669     338.467    -147.117
  H       10.294     336.790    -147.154
  P       11.990     338.390    -148.753
  C       12.818     336.469    -150.302
  O       12.912     337.103    -149.033
  C       14.142     335.796    -150.664
  O       15.196     336.788    -150.661
  C       14.544     334.684    -149.692
  O       15.044     333.568    -150.430
  C       15.642     335.307    -148.850
  O       16.533     334.330    -148.315
  C       16.268     336.309    -149.825
  N       16.932     337.406    -149.131
  C       18.208     337.148    -148.616
  O       18.714     336.035    -148.747
  N       18.856     338.135    -147.922
  C       18.259     339.259    -147.700
  N       18.948     340.195    -146.988
  C       16.896     339.567    -148.182
  C       16.302     338.604    -148.888
  O       12.129     338.620    -147.177
  O       12.331     339.592    -149.575
  H       17.250     334.802    -147.841
  H       12.933     339.144    -146.957
  H       16.434     340.516    -147.963
  H       15.300     338.738    -149.279
  H       17.002     335.807    -150.474
  H       15.186     335.842    -148.003
  H       13.716     334.352    -149.067
  H       14.071     335.418    -151.693
  H       19.876     339.950    -146.666
  H       12.569     337.224    -151.059
  H       18.569     341.097    -146.729
  H       12.022     335.718    -150.272
  P       14.427     332.138    -150.042
  C       13.833     331.470    -152.474
  O       13.346     331.752    -151.172
  O       13.534     332.453    -148.751
  O       15.460     331.095    -149.778
  H       14.014     332.214    -147.938
  H       13.012     331.231    -153.118
  H       14.506     330.639    -152.431
  H       14.348     332.327    -152.856

 6  7  8  9  10  11  12  13  14  15  16  26  30  31  32  33  35 0
 6-311+G(2d,p)
 ****
 37  38 0
 6-311+G(2d,p)
 ****
 1  2  3  4  5  17  18  19  20  21  22  23  24  25 0
 3-21G
 ****
 27  28  29  34  36  39  40  41  42  43  44  45  46 0
 3-21G
 ****


