%nproc=1
%NoSave
%Mem=1900MB
#P OB98/GEN NMR

erre ene a

0 1
  C      229.021      39.944      73.635
  O      229.218      41.309      73.330
  H      228.862      39.395      72.702
  H      228.140      39.820      74.268
  H      229.904      39.537      74.139
  P      229.415      42.307      74.570
  C      227.780      44.118      73.674
  O      229.120      43.786      74.019
  C      227.780      45.288      72.688
  O      228.372      46.450      73.306
  C      228.606      45.038      71.428
  O      227.922      44.228      70.494
  C      228.814      46.459      70.938
  O      227.694      46.919      70.166
  C      228.949      47.252      72.256
  N      230.334      47.622      72.543
  C      230.938      48.460      71.614
  O      230.366      48.879      70.606
  N      232.249      48.779      71.857
  C      233.002      48.315      72.897
  O      234.196      48.576      73.020
  C      232.304      47.438      73.854
  C      231.030      47.124      73.633
  O      230.997      42.295      74.799
  O      228.662      41.937      75.804
  H      231.219      41.735      75.567
  H      227.963      47.771      69.772
  H      232.705      49.378      71.188
  H      232.876      47.059      74.691
  H      230.494      46.469      74.310
  H      228.358      48.178      72.206
  H      229.690      46.538      70.292
  H      229.579      44.605      71.696
  H      226.740      45.520      72.425
  H      227.232      44.411      74.573
  H      227.296      43.241      73.232
  P      228.672      42.937      69.904
  C      228.243      43.467      67.363
  O      227.999      42.625      68.480
  O      228.103      41.786      70.861
  O      230.159      43.060      69.882
  H      227.175      41.923      71.117
  H      227.710      43.095      66.513
  H      229.291      43.480      67.149
  H      227.912      44.460      67.586

 6  7  8  9  10  11  12  13  14  15  16  27  31  32  33  34  35 0
 6-311+G(2d,p)
 ****
 36  37 0
 6-311+G(2d,p)
 ****
 1  2  3  4  5  17  18  19  20  21  22  23  24  25 0
 3-21G
 ****
 26  28  29  30  38  39  40  41  42  43  44  45 0
 3-21G
 ****


