%nproc=1
%NoSave
%Mem=1900MB
#P OB98/GEN NMR

erre ene a

0 1
  C      115.982     457.744    -315.822
  O      117.232     458.397    -315.755
  H      115.929     456.949    -315.074
  H      115.191     458.473    -315.615
  H      115.824     457.327    -316.823
  P      118.534     457.491    -315.996
  C      118.791     456.871    -313.481
  O      119.342     457.537    -314.609
  C      119.809     456.872    -312.345
  O      121.029     456.226    -312.771
  C      120.218     458.270    -311.892
  O      119.289     458.847    -310.987
  C      121.541     457.970    -311.207
  O      121.298     457.395    -309.914
  C      122.152     456.924    -312.155
  N      126.603     459.236    -313.177
  C      126.084     458.734    -312.031
  N      124.905     458.114    -311.846
  C      124.226     458.026    -313.002
  C      124.631     458.485    -314.249
  C      125.882     459.126    -314.313
  N      126.395     459.666    -315.473
  N      123.656     458.228    -315.197
  C      122.698     457.612    -314.532
  N      122.983     457.494    -313.199
  O      119.441     458.376    -316.974
  O      118.284     456.114    -316.519
  H      120.634     456.688    -310.032
  H      120.153     457.836    -317.363
  H      126.709     458.849    -311.147
  H      121.778     457.237    -314.969
  H      122.757     456.175    -311.626
  H      122.152     458.865    -311.052
  H      120.402     458.934    -312.748
  H      119.400     456.294    -311.510
  H      118.554     455.838    -313.756
  H      127.228     460.232    -315.383
  H      125.803     459.717    -316.286
  H      117.878     457.380    -313.166
  P      118.424     460.098    -311.507
  C      119.971     461.572    -310.035
  O      118.641     461.274    -310.440
  O      116.918     459.621    -311.233
  O      118.656     460.459    -312.937
  H      116.310     459.996    -311.900
  H      119.957     462.373    -309.326
  H      120.547     461.862    -310.889
  H      120.410     460.705    -309.586

 6  7  8  9  10  11  12  13  14  15  25  28  32  33  34  35 0
 6-311+G(2d,p)
 ****
 36  39  40 0
 6-311+G(2d,p)
 ****
 1  2  3  4  5  16  17  18  19  20  21  22  23  24 0
 3-21G
 ****
 26  27  29  30  31  37  38  41  42  43  44  45  46  47 0
 3-21G
 ****
 48 0
 3-21G
 ****


