%nproc=1
%NoSave
%Mem=1900MB
#P OB98/GEN NMR

erre ene a

0 1
  C      100.331     276.088    1064.046
  O       99.527     274.995    1063.635
  P       98.613     275.079    1062.322
  C       98.722     272.514    1062.047
  O       97.877     273.646    1062.239
  C       97.918     271.229    1062.218
  O       97.679     271.015    1063.626
  C       96.528     271.215    1061.571
  O       96.522     270.881    1060.192
  C       95.856     270.100    1062.363
  O       96.278     268.814    1061.860
  C       96.405     270.334    1063.774
  N       91.837     270.531    1066.075
  C       92.433     269.567    1065.347
  N       93.646     269.591    1064.755
  C       94.267     270.769    1064.997
  C       93.760     271.844    1065.721
  C       92.486     271.691    1066.268
  N       91.863     272.678    1067.028
  N       94.693     272.879    1065.759
  C       95.720     272.429    1065.057
  N       95.519     271.149    1064.596
  O       99.332     275.511    1061.089
  O       97.425     276.069    1062.728
  H       95.917     268.746    1060.957
  H       96.962     276.392    1061.935
  H       91.871     268.633    1065.221
  H       96.628     272.984    1064.877
  H       96.591     269.398    1064.314
  H       94.756     270.140    1062.294
  H       96.001     272.169    1061.753
  H       98.515     270.387    1061.847
  H       99.513     272.553    1062.800
  H       91.002     272.440    1067.488
  H       92.429     273.478    1067.324
  H       99.195     272.564    1061.053
  P       95.410     271.596    1059.264
  C       96.880     271.530    1057.099
  O       95.716     271.102    1057.760
  O       95.314     273.073    1059.450
  O       94.064     270.814    1059.646
  H       94.043     269.868    1059.378
  H       96.985     270.969    1056.160
  H       97.772     271.355    1057.706
  H       96.810     272.605    1056.846
  H      100.858     275.827    1064.939
  H       99.708     276.938    1064.235
  H      101.033     276.325    1063.274

 3  4  5  6  7  8  9  10  11  12  22  25  29  30  31  32 0
 6-311+G(2d,p)
 ****
 33  36  37 0
 6-311+G(2d,p)
 ****
 1  2  13  14  15  16  17  18  19  20  21  23  24  26 0
 3-21G
 ****
 27  28  34  35  38  39  40  41  42  43  44  45  46  47  48 0
 3-21G
 ****


