%nproc=1
%NoSave
%Mem=1900MB
#P OB98/GEN NMR

erre ene a

0 1
  C       28.950      36.424     -43.729
  O       28.024      35.451     -44.166
  H       29.941      35.965     -43.672
  H       28.671      36.782     -42.735
  H       28.990      37.262     -44.430
  P       26.546      35.969     -44.515
  C       24.598      36.976     -43.126
  O       25.819      36.251     -43.112
  C       23.563      36.281     -42.247
  O       23.161      35.026     -42.839
  C       24.055      35.950     -40.842
  O       23.958      37.069     -39.971
  C       23.069      34.862     -40.450
  O       21.806      35.458     -40.090
  C       22.931      34.077     -41.760
  N       24.138      29.437     -40.114
  C       23.107      30.274     -39.733
  N       22.284      29.813     -38.767
  N       22.901      31.459     -40.246
  C       23.809      31.794     -41.194
  C       24.871      31.051     -41.659
  C       25.082      29.740     -41.088
  O       25.965      28.949     -41.406
  N       25.562      31.721     -42.633
  C       24.934      32.874     -42.744
  N       23.866      32.971     -41.887
  O       25.808      34.650     -45.052
  O       26.474      37.074     -45.512
  H       21.964      35.990     -39.289
  H       25.191      34.904     -45.765
  H       24.258      28.539     -39.679
  H       25.209      33.666     -43.427
  H       21.925      33.663     -41.895
  H       23.404      34.279     -39.592
  H       22.416      28.931     -38.295
  H       25.069      35.535     -40.858
  H       21.502      30.393     -38.493
  H       22.673      36.922     -42.203
  H       24.223      37.028     -44.153
  H       24.782      37.991     -42.761
  P       25.209      37.374     -39.010
  C       26.751      35.829     -37.603
  O       25.474      36.014     -38.202
  O       24.584      38.346     -37.902
  O       26.391      37.979     -39.686
  H       25.290      38.880     -37.490
  H       26.777      34.883     -37.103
  H       26.930      36.611     -36.895
  H       27.507      35.853     -38.360

 6  7  8  9  10  11  12  13  14  15  26  29  33  34 0
 6-311+G(2d,p)
 ****
 36  38  39  40  41 0
 6-311+G(2d,p)
 ****
 1  2  3  4  5  16  17  18  19  20  21  22  23  24  25 0
 3-21G
 ****
 27  28  30  31  32  35  37  42  43  44  45  46  47 0
 3-21G
 ****
 48  49 0
 3-21G
 ****


