%nproc=1
%NoSave
%Mem=1900MB
#P OB98/GEN NMR

erre ene a

0 1
  C      -12.787     251.067    -458.702
  O      -13.635     250.029    -458.221
  P      -13.939     248.729    -459.109
  C      -16.378     249.504    -459.505
  O      -15.123     249.172    -460.098
  C      -17.352     249.967    -460.583
  O      -16.945     251.259    -461.086
  C      -17.427     249.059    -461.803
  O      -18.187     247.887    -461.520
  C      -18.034     250.008    -462.830
  O      -19.454     250.108    -462.646
  C      -17.367     251.348    -462.468
  N      -16.221     251.670    -463.334
  C      -16.531     252.209    -464.590
  O      -17.705     252.415    -464.917
  N      -15.501     252.559    -465.431
  C      -14.270     252.343    -465.068
  N      -13.286     252.766    -465.913
  C      -13.904     251.719    -463.783
  C      -14.922     251.420    -462.970
  O      -14.202     247.482    -458.334
  O      -12.685     248.621    -460.108
  H      -19.807     250.637    -463.389
  H      -11.938     248.095    -459.732
  H      -12.862     251.558    -463.529
  H      -14.737     250.972    -461.995
  H      -18.094     252.164    -462.515
  H      -17.851     249.696    -463.867
  H      -16.419     248.763    -462.122
  H      -18.348     250.076    -460.118
  H      -13.581     253.346    -466.692
  H      -16.224     250.320    -458.789
  H      -12.340     252.903    -465.590
  H      -16.767     248.632    -458.967
  P      -17.565     246.472    -461.967
  C      -18.720     246.679    -464.287
  O      -17.508     246.510    -463.579
  O      -18.744     245.437    -461.638
  O      -16.280     246.125    -461.280
  H      -18.554     244.973    -460.801
  H      -18.475     246.923    -465.322
  H      -19.310     247.500    -463.866
  H      -19.294     245.753    -464.277
  H      -12.714     251.838    -457.964
  H      -13.196     251.473    -459.603
  H      -11.814     250.669    -458.900

 3  4  5  6  7  8  9  10  11  12  13  23  27  28  29  30  32 0
 6-311+G(2d,p)
 ****
 34  35 0
 6-311+G(2d,p)
 ****
 1  2  14  15  16  17  18  19  20  21  22  24  25  26 0
 3-21G
 ****
 31  33  36  37  38  39  40  41  42  43  44  45  46 0
 3-21G
 ****


