%nproc=1
%NoSave
%Mem=1900MB
#P OB98/GEN NMR

erre ene a

0 1
  C     -374.735    -513.018    -890.663
  O     -374.480    -512.159    -891.763
  H     -374.983    -514.013    -891.043
  H     -375.582    -512.657    -890.083
  H     -373.851    -513.094    -890.033
  P     -374.246    -510.604    -891.473
  C     -375.691    -509.741    -893.443
  O     -374.381    -509.871    -892.893
  C     -375.658    -508.837    -894.673
  O     -375.382    -507.471    -894.293
  C     -374.567    -509.214    -895.673
  O     -374.924    -510.363    -896.403
  C     -374.444    -507.936    -896.463
  O     -375.472    -507.836    -897.443
  C     -374.620    -506.861    -895.353
  N     -373.351    -506.348    -894.873
  C     -372.731    -505.373    -895.673
  O     -373.262    -505.012    -896.733
  N     -371.513    -504.871    -895.273
  C     -370.984    -505.268    -894.163
  N     -369.783    -504.727    -893.823
  C     -371.607    -506.281    -893.273
  C     -372.776    -506.764    -893.683
  O     -373.015    -510.234    -890.703
  O     -375.581    -510.158    -890.703
  H     -375.315    -508.582    -898.083
  H     -375.483    -510.273    -889.743
  H     -371.123    -506.572    -892.353
  H     -373.299    -507.509    -893.093
  H     -375.214    -506.020    -895.733
  H     -373.484    -507.871    -896.983
  H     -373.608    -509.379    -895.133
  H     -376.648    -508.868    -895.153
  H     -369.372    -504.063    -894.463
  H     -376.321    -509.293    -892.663
  H     -369.308    -504.904    -892.953
  H     -376.104    -510.714    -893.703
  P     -373.885    -511.567    -896.623
  C     -373.259    -510.660    -898.963
  O     -373.773    -511.765    -898.203
  O     -374.158    -512.807    -895.833
  O     -372.467    -510.889    -896.263
  H     -372.374    -510.763    -895.273
  H     -373.236    -510.921    -900.000
  H     -372.268    -510.429    -898.630
  H     -373.890    -509.807    -898.823

 6  7  8  9  10  11  12  13  14  15  16  26  30  31  32  33  35 0
 6-311+G(2d,p)
 ****
 37  38 0
 6-311+G(2d,p)
 ****
 1  2  3  4  5  17  18  19  20  21  22  23  24  25 0
 3-21G
 ****
 27  28  29  34  36  39  40  41  42  43  44  45  46 0
 3-21G
 ****


