%nproc=1
%NoSave
%Mem=1900MB
#P OB98/GEN NMR

erre ene a

0 1
  C     -175.693    -102.404    -113.177
  O     -176.854    -101.758    -112.697
  P     -177.899    -101.053    -113.690
  C     -179.169    -103.284    -113.839
  O     -178.534    -102.242    -114.565
  C     -180.029    -104.157    -114.757
  O     -180.573    -105.271    -114.001
  C     -181.212    -103.421    -115.415
  O     -181.381    -104.018    -116.706
  C     -182.365    -103.787    -114.503
  O     -183.633    -103.599    -115.125
  C     -182.012    -105.238    -114.148
  N     -182.701    -105.693    -112.948
  C     -184.086    -105.846    -113.039
  O     -184.682    -105.528    -114.073
  N     -184.777    -106.300    -111.945
  C     -184.148    -106.485    -110.824
  N     -184.883    -106.943    -109.773
  C     -182.708    -106.214    -110.650
  C     -182.050    -105.838    -111.744
  O     -177.350     -99.913    -114.481
  O     -179.111    -100.641    -112.734
  H     -183.821    -102.634    -115.152
  H     -178.881     -99.831    -112.215
  H     -182.241    -106.332    -109.684
  H     -180.996    -105.619    -111.714
  H     -182.269    -105.911    -114.976
  H     -182.337    -103.158    -113.606
  H     -181.060    -102.347    -115.500
  H     -179.375    -104.579    -115.529
  H     -185.864    -107.130    -109.944
  H     -179.816    -102.827    -113.087
  H     -184.476    -107.198    -108.884
  H     -178.419    -103.888    -113.319
  P     -181.908    -103.160    -117.954
  C     -179.634    -102.012    -118.206
  O     -181.024    -101.826    -118.011
  O     -183.386    -102.937    -117.988
  O     -181.414    -103.979    -119.239
  H     -181.901    -103.672    -120.028
  H     -179.188    -101.058    -118.505
  H     -179.442    -102.754    -118.983
  H     -179.172    -102.339    -117.269
  H     -175.140    -102.803    -112.352
  H     -175.086    -101.700    -113.706
  H     -175.974    -103.199    -113.836

 3  4  5  6  7  8  9  10  11  12  13  23  27  28  29  30  32 0
 6-311+G(2d,p)
 ****
 34  35 0
 6-311+G(2d,p)
 ****
 1  2  14  15  16  17  18  19  20  21  22  24  25  26 0
 3-21G
 ****
 31  33  36  37  38  39  40  41  42  43  44  45  46 0
 3-21G
 ****


