%nproc=1
%NoSave
%Mem=1900MB
#P OB98/GEN NMR

erre ene a

0 1
  C      289.409      88.806     137.818
  O      290.140      88.847     136.604
  P      289.326      88.826     135.226
  C      288.754      86.324     134.846
  O      289.598      87.417     134.511
  C      288.656      85.333     133.683
  O      287.764      84.248     134.040
  C      288.118      85.958     132.389
  O      288.743      85.326     131.261
  C      286.660      85.552     132.383
  O      286.118      85.563     131.062
  C      286.744      84.167     133.023
  N      282.144      82.347     131.984
  C      283.266      82.406     131.181
  N      283.112      82.001     129.901
  N      284.432      82.815     131.597
  C      284.437      83.195     132.899
  C      283.393      83.167     133.798
  C      282.104      82.723     133.322
  O      281.067      82.674     133.973
  N      283.792      83.597     135.037
  C      285.060      83.924     134.883
  N      285.487      83.734     133.595
  O      290.131      89.871     134.319
  O      287.890      89.219     135.348
  H      286.739      85.060     130.499
  H      289.629      90.702     134.243
  H      281.261      82.032     131.614
  H      285.700      84.326     135.659
  H      287.062      83.410     132.298
  H      286.073      86.246     132.999
  H      282.221      81.737     129.503
  H      288.251      87.043     132.320
  H      283.907      82.077     129.280
  H      289.647      84.893     133.518
  H      287.756      86.702     135.076
  H      289.144      85.818     135.736
  P      289.198      86.306     130.071
  C      286.686      86.661     129.492
  O      287.980      86.324     129.032
  O      290.329      85.461     129.316
  O      289.690      87.637     130.526
  H      290.944      86.061     128.852
  H      286.361      87.579     128.995
  H      286.655      86.813     130.576
  H      285.996      85.855     129.230
  H      290.088      88.826     138.644
  H      288.829      87.907     137.855
  H      288.758      89.653     137.871

 3  4  5  6  7  8  9  10  11  12  23  26  30  31 0
 6-311+G(2d,p)
 ****
 33  35  36  37  38 0
 6-311+G(2d,p)
 ****
 1  2  13  14  15  16  17  18  19  20  21  22  24  25 0
 3-21G
 ****
 27  28  29  32  34  39  40  41  42  43  44  45  46  47  48  49 0
 3-21G
 ****


