%nproc=1
%NoSave
%Mem=1900MB
#P OB98/GEN NMR

erre ene a

0 1
  C     -247.709     -27.831       6.570
  O     -246.316     -27.643       6.717
  H     -248.078     -27.136       5.810
  H     -248.234     -27.634       7.509
  H     -247.917     -28.853       6.236
  P     -245.583     -28.362       7.951
  C     -246.387     -26.515       9.568
  O     -246.398     -27.907       9.261
  C     -247.396     -26.189      10.673
  O     -248.741     -26.355      10.181
  C     -247.298     -27.104      11.883
  O     -246.125     -26.927      12.650
  C     -248.661     -26.928      12.538
  O     -248.723     -25.813      13.425
  C     -249.573     -26.676      11.313
  N     -250.449     -27.809      11.042
  C     -251.542     -27.949      11.891
  O     -251.771     -27.191      12.833
  N     -252.354     -29.022      11.645
  C     -252.154     -29.975      10.690
  O     -252.896     -30.939      10.547
  C     -250.965     -29.789       9.838
  C     -250.176     -28.731      10.049
  O     -244.104     -28.138       8.050
  O     -245.990     -29.901       7.789
  H     -249.652     -25.735      13.719
  H     -245.398     -30.484       8.321
  H     -253.158     -29.134      12.242
  H     -250.773     -30.528       9.072
  H     -249.293     -28.574       9.437
  H     -250.209     -25.798      11.491
  H     -248.944     -27.812      13.116
  H     -247.264     -28.141      11.521
  H     -247.266     -25.138      10.962
  H     -246.664     -25.970       8.658
  H     -245.379     -26.211       9.870
  P     -245.323     -28.136      13.318
  C     -246.172     -27.508      15.692
  O     -246.050     -28.519      14.700
  O     -243.831     -28.048      13.294
  O     -245.747     -29.365      12.360
  H     -244.981     -29.967      12.297
  H     -246.673     -27.908      16.549
  H     -246.737     -26.689      15.299
  H     -245.198     -27.167      15.975

 6  7  8  9  10  11  12  13  14  15  16  26  31  32  33  34  35 0
 6-311+G(2d,p)
 ****
 36  37 0
 6-311+G(2d,p)
 ****
 1  2  3  4  5  17  18  19  20  21  22  23  24  25 0
 3-21G
 ****
 27  28  29  30  38  39  40  41  42  43  44  45 0
 3-21G
 ****


