%nproc=1
%NoSave
%Mem=1900MB
#P OB98/GEN NMR

erre ene a

0 1
  C     -128.558     400.434     468.097
  O     -127.397     401.137     468.550
  P     -126.544     400.592     469.794
  C     -127.012     402.443     471.496
  O     -127.238     401.075     471.159
  C     -127.093     402.720     473.007
  O     -126.608     404.052     473.312
  C     -128.500     402.600     473.612
  O     -128.309     402.114     474.946
  C     -128.971     404.044     473.625
  O     -130.053     404.259     474.514
  C     -127.658     404.769     473.980
  N     -127.682     406.182     473.596
  C     -128.525     407.018     474.330
  O     -129.240     406.565     475.219
  N     -128.559     408.358     474.010
  C     -127.898     408.792     472.980
  N     -127.993     410.120     472.707
  C     -127.068     407.925     472.123
  C     -127.002     406.649     472.495
  O     -125.074     400.860     469.716
  O     -126.824     399.006     469.785
  H     -130.703     403.535     474.387
  H     -126.049     398.541     470.148
  H     -126.558     408.325     471.267
  H     -126.413     405.920     471.934
  H     -127.475     404.714     475.060
  H     -129.296     404.343     472.619
  H     -129.169     401.952     473.038
  H     -126.416     402.013     473.503
  H     -128.593     410.680     473.302
  H     -127.759     403.057     470.979
  H     -127.620     410.538     471.870
  H     -126.034     402.749     471.116
  P     -128.231     400.548     475.263
  C     -130.692     400.184     475.860
  O     -129.665     399.925     474.923
  O     -127.716     400.214     476.626
  O     -127.276     399.937     474.124
  H     -126.952     399.061     474.408
  H     -131.647     399.901     475.428
  H     -130.728     401.248     476.128
  H     -130.524     399.581     476.762
  H     -128.986     400.951     467.264
  H     -129.275     400.381     468.890
  H     -128.282     399.444     467.799

 3  4  5  6  7  8  9  10  11  12  13  23  27  28  29  30  32 0
 6-311+G(2d,p)
 ****
 34  35 0
 6-311+G(2d,p)
 ****
 1  2  14  15  16  17  18  19  20  21  22  24  25  26 0
 3-21G
 ****
 31  33  36  37  38  39  40  41  42  43  44  45  46 0
 3-21G
 ****


