%nproc=1
%NoSave
%Mem=1900MB
#P OB98/GEN NMR

erre ene a

0 1
  C     1487.512    -403.907     246.688
  O     1486.790    -404.727     245.769
  H     1487.064    -403.971     247.689
  H     1488.544    -404.245     246.740
  H     1487.499    -402.872     246.336
  P     1485.240    -404.374     245.546
  C     1485.602    -403.793     243.034
  O     1485.216    -403.329     244.319
  C     1484.337    -404.113     242.233
  O     1483.426    -402.997     242.247
  C     1484.594    -404.383     240.742
  O     1485.023    -405.750     240.503
  C     1483.220    -404.150     240.154
  O     1482.366    -405.301     240.433
  C     1482.745    -402.932     240.962
  N     1480.949    -399.391     237.763
  C     1480.432    -400.555     238.154
  N     1481.001    -401.438     239.026
  C     1482.166    -401.028     239.434
  C     1482.861    -399.863     239.085
  C     1482.176    -399.007     238.200
  N     1482.708    -397.823     237.751
  N     1484.091    -399.791     239.728
  C     1484.154    -400.878     240.441
  N     1483.028    -401.669     240.303
  O     1484.868    -403.463     246.803
  O     1484.329    -405.550     245.391
  H     1482.863    -406.086     240.126
  H     1483.897    -403.459     246.953
  H     1479.446    -400.805     237.773
  H     1484.976    -401.150     241.090
  H     1481.661    -402.958     241.150
  H     1483.229    -404.011     239.076
  H     1485.307    -403.659     240.317
  H     1483.825    -404.972     242.679
  H     1486.188    -404.713     243.148
  H     1482.244    -397.371     236.963
  H     1483.682    -397.611     237.968
  H     1486.185    -403.031     242.523
  P     1486.552    -405.936     239.996
  C     1487.243    -407.632     241.890
  O     1487.415    -406.318     241.288
  O     1487.018    -404.454     239.678
  O     1486.693    -406.857     238.833
  H     1487.704    -404.460     238.965
  H     1487.890    -407.723     242.738
  H     1487.486    -408.388     241.173
  H     1486.227    -407.751     242.202

 6  7  8  9  10  11  12  13  14  15  25  28  32  33  34  35 0
 6-311+G(2d,p)
 ****
 36  39  40 0
 6-311+G(2d,p)
 ****
 1  2  3  4  5  16  17  18  19  20  21  22  23  24 0
 3-21G
 ****
 26  27  29  30  31  37  38  41  42  43  44  45  46  47 0
 3-21G
 ****
 48 0
 3-21G
 ****


