%nproc=1
%NoSave
%Mem=1900MB
#P OB98/GEN NMR

erre ene a

0 1
  C       35.645    -311.466    -129.757
  O       36.472    -310.609    -128.969
  P       38.056    -310.882    -128.915
  C       38.135    -310.144    -126.458
  O       38.701    -309.989    -127.751
  C       39.032    -309.569    -125.348
  O       40.381    -310.121    -125.446
  C       39.174    -308.043    -125.373
  O       39.255    -307.611    -124.006
  C       40.494    -307.834    -126.088
  O       41.042    -306.541    -125.861
  C       41.299    -309.010    -125.504
  N       42.475    -309.323    -126.308
  C       43.631    -308.574    -126.066
  O       43.600    -307.620    -125.285
  N       44.775    -308.902    -126.745
  C       44.728    -309.806    -127.680
  N       45.904    -310.121    -128.315
  C       43.488    -310.487    -128.088
  C       42.418    -310.225    -127.344
  O       38.765    -310.820    -130.236
  O       38.138    -312.368    -128.297
  H       40.994    -306.335    -124.900
  H       38.900    -312.837    -128.704
  H       43.483    -311.167    -128.930
  H       41.459    -310.675    -127.554
  H       41.620    -308.789    -124.480
  H       40.352    -307.961    -127.173
  H       38.328    -307.536    -125.854
  H       38.628    -309.884    -124.378
  H       46.741    -309.630    -128.049
  H       37.968    -311.208    -126.265
  H       45.951    -310.834    -129.022
  H       37.138    -309.670    -126.438
  P       37.963    -306.957    -123.313
  C       39.249    -306.212    -121.184
  O       38.193    -306.969    -121.736
  O       36.862    -308.120    -123.506
  O       37.460    -305.688    -123.929
  H       35.976    -307.717    -123.491
  H       39.080    -306.110    -120.094
  H       39.291    -305.214    -121.621
  H       40.202    -306.726    -121.343
  H       34.627    -311.146    -129.682
  H       35.731    -312.471    -129.400
  H       35.958    -311.423    -130.779

 3  4  5  6  7  8  9  10  11  12  13  23  27  28  29  30  32 0
 6-311+G(2d,p)
 ****
 34  35 0
 6-311+G(2d,p)
 ****
 1  2  14  15  16  17  18  19  20  21  22  24  25  26 0
 3-21G
 ****
 31  33  36  37  38  39  40  41  42  43  44  45  46 0
 3-21G
 ****


