%nproc=1
%NoSave
%Mem=1900MB
#P OB98/GEN NMR

erre ene a

0 1
  C      -31.408    -155.937     109.500
  O      -32.798    -155.596     109.568
  P      -33.141    -154.026     109.634
  C      -35.423    -154.309     108.427
  O      -34.740    -153.864     109.591
  C      -35.843    -155.777     108.538
  O      -36.592    -155.968     109.762
  C      -36.723    -156.283     107.389
  O      -36.366    -157.642     107.100
  C      -38.114    -156.298     107.995
  O      -38.990    -157.194     107.314
  C      -37.785    -156.697     109.432
  N      -40.951    -158.622     112.874
  C      -39.905    -159.226     112.203
  N      -39.688    -160.530     112.473
  N      -39.140    -158.602     111.346
  C      -39.452    -157.291     111.200
  C      -40.458    -156.579     111.816
  C      -41.322    -157.291     112.729
  O      -42.298    -156.828     113.316
  N      -40.462    -155.265     111.409
  C      -39.469    -155.189     110.546
  N      -38.832    -156.392     110.380
  O      -32.656    -153.488     108.207
  O      -32.457    -153.307     110.748
  H      -38.621    -158.091     107.421
  H      -32.010    -152.766     108.324
  H      -41.522    -159.154     113.509
  H      -39.185    -154.301     109.998
  H      -37.559    -157.767     109.506
  H      -38.547    -155.292     107.944
  H      -40.197    -161.051     113.169
  H      -36.668    -155.681     106.476
  H      -38.897    -160.976     112.024
  H      -34.934    -156.387     108.616
  H      -34.774    -154.187     107.556
  H      -36.305    -153.676     108.276
  P      -36.131    -158.005     105.555
  C      -34.182    -159.666     106.019
  O      -35.503    -159.477     105.544
  O      -34.904    -157.065     105.138
  O      -37.327    -157.798     104.689
  H      -34.937    -156.873     104.181
  H      -33.801    -158.782     106.535
  H      -33.529    -159.891     105.173
  H      -34.173    -160.510     106.713
  H      -31.303    -157.001     109.460
  H      -30.906    -155.561     110.367
  H      -30.977    -155.503     108.622

 3  4  5  6  7  8  9  10  11  12  23  26  30  31  33  0
 6-311+G(2d,p)
 ****
 35  36  37  38 0
 6-311+G(2d,p)
 ****
 1  2  13  14  15  16  17  18  19  20  21  22  24  25  27  28  29 0
 3-21G
 ****
 32  34  39  40  41  42  43  44  45  46  47  48  49 0
 3-21G
 ****


