%nproc=1
%NoSave
%Mem=1900MB
#P OB98/GEN NMR

erre ene a

0 1
  C     -273.322     310.717      84.263
  O     -273.035     311.200      85.561
  H     -273.748     311.515      83.651
  H     -272.393     310.375      83.798
  H     -274.019     309.878      84.318
  P     -274.266     311.788      86.404
  C     -276.255     313.384      85.925
  O     -275.046     312.813      85.440
  C     -276.358     314.842      85.486
  O     -275.345     315.603      86.195
  C     -276.163     315.073      83.978
  O     -277.307     315.724      83.421
  C     -274.975     316.025      83.891
  O     -275.135     317.033      82.896
  C     -274.902     316.625      85.293
  N     -271.325     320.127      84.315
  C     -272.667     320.156      84.167
  N     -273.577     319.231      84.544
  C     -272.970     318.198      85.163
  C     -271.619     318.036      85.406
  C     -270.771     319.056      84.934
  N     -269.399     319.000      85.037
  N     -271.377     316.839      86.055
  C     -272.559     316.266      86.160
  N     -273.552     317.042      85.615
  O     -273.554     312.748      87.475
  O     -275.127     310.764      87.068
  H     -275.124     316.579      82.031
  H     -273.911     312.566      88.364
  H     -273.068     321.036      83.670
  H     -272.747     315.282      86.572
  H     -275.566     317.490      85.407
  H     -274.072     315.448      83.655
  H     -275.961     314.143      83.428
  H     -277.333     315.227      85.806
  H     -276.269     313.336      87.023
  H     -268.864     319.717      84.568
  H     -268.976     318.158      85.397
  H     -277.102     312.802      85.544
  P     -278.515     314.779      82.943
  C     -278.804     312.837      81.230
  O     -277.949     313.834      81.770
  O     -279.478     315.791      82.163
  O     -279.221     314.080      84.056
  H     -280.400     315.468      82.192
  H     -278.285     312.297      80.466
  H     -279.673     313.301      80.811
  H     -279.099     312.162      82.006

 6  7  8  9  10  11  12  13  14  15  25  28  32  33  34  35 0
 6-311+G(2d,p)
 ****
 36  39  40 0
 6-311+G(2d,p)
 ****
 1  2  3  4  5  16  17  18  19  20  21  22  23  24 0
 3-21G
 ****
 26  27  29  30  31  37  38  41  42  43  44  45  46  47  48 0
 3-21G
 ****


