%nproc=1
%NoSave
%Mem=1900MB
#P OB98/GEN NMR

erre ene a

0 1
  C     -899.144    -397.317    -515.915
  O     -898.654    -396.311    -516.784
  P     -898.164    -394.903    -516.212
  C     -895.684    -395.539    -516.326
  O     -896.754    -395.139    -515.477
  C     -894.364    -394.910    -515.885
  O     -894.554    -393.471    -515.722
  C     -893.814    -395.443    -514.551
  O     -892.384    -395.412    -514.664
  C     -894.254    -394.391    -513.551
  O     -893.484    -394.402    -512.357
  C     -894.104    -393.124    -514.395
  N     -894.214    -389.298    -511.014
  C     -893.304    -390.269    -511.241
  N     -893.364    -391.269    -512.141
  C     -894.494    -391.201    -512.862
  C     -895.524    -390.286    -512.721
  C     -895.354    -389.283    -511.754
  N     -896.254    -388.262    -511.529
  N     -896.554    -390.581    -513.599
  C     -896.144    -391.649    -514.253
  N     -894.884    -392.025    -513.883
  O     -899.174    -394.162    -515.396
  O     -897.754    -394.073    -517.519
  H     -893.754    -393.643    -511.810
  H     -898.434    -393.391    -517.701
  H     -892.414    -390.242    -510.618
  H     -896.724    -392.190    -514.994
  H     -893.064    -392.798    -514.466
  H     -895.304    -394.566    -513.283
  H     -894.154    -396.446    -514.301
  H     -893.634    -395.046    -516.689
  H     -895.924    -395.218    -517.341
  H     -895.964    -387.521    -510.912
  H     -896.964    -388.070    -512.235
  H     -895.604    -396.627    -516.324
  P     -891.504    -396.617    -514.060
  C     -891.084    -398.098    -516.104
  O     -891.854    -397.911    -514.926
  O     -891.604    -396.792    -512.576
  O     -890.014    -396.261    -514.518
  H     -889.386    -396.758    -513.973
  H     -891.484    -397.460    -516.901
  H     -891.144    -399.141    -516.411
  H     -890.034    -397.842    -515.936
  H     -899.419    -398.179    -516.486
  H     -900.000    -396.949    -515.390
  H     -898.382    -397.584    -515.213

 3  4  5  6  7  8  9  10  11  12  22  25  29  30  31  32 0
 6-311+G(2d,p)
 ****
 33  36  37 0
 6-311+G(2d,p)
 ****
 1  2  13  14  15  16  17  18  19  20  21  23  24  26 0
 3-21G
 ****
 27  28  34  35  38  39  40  41  42  43  44  45  46  47  48 0
 3-21G
 ****


