%nproc=1
%NoSave
%Mem=1900MB
#P OB98/GEN NMR

erre ene a

0 1
  C      160.228      71.557      12.009
  O      161.123      71.258      13.062
  H      160.780      71.741      11.084
  H      159.563      70.702      11.857
  H      159.625      72.434      12.263
  P      162.214      72.378      13.422
  C      164.701      72.744      12.752
  O      163.568      71.889      12.710
  C      165.816      72.145      11.902
  O      166.356      70.969      12.547
  C      165.357      71.686      10.522
  O      165.292      72.751       9.588
  C      166.465      70.708      10.167
  O      167.642      71.430       9.767
  C      166.700      70.007      11.514
  N      166.433      64.964      10.668
  C      167.402      65.871      10.416
  N      167.405      67.191      10.692
  C      166.264      67.552      11.299
  C      165.191      66.740      11.627
  C      165.301      65.383      11.280
  N      164.302      64.463      11.505
  N      164.188      67.478      12.224
  C      164.657      68.708      12.272
  N      165.895      68.810      11.696
  O      162.515      72.130      14.975
  O      161.829      73.786      13.118
  H      167.784      72.133      10.428
  H      162.995      72.891      15.353
  H      168.291      65.485       9.927
  H      164.139      69.557      12.700
  H      167.748      69.719      11.661
  H      166.194      70.047       9.339
  H      164.406      71.145      10.574
  H      166.624      72.882      11.823
  H      165.039      72.839      13.789
  H      164.414      63.552      11.089
  H      163.403      64.790      11.824
  H      164.426      73.732      12.371
  P      164.141      72.686       8.470
  C      164.106      72.108       5.937
  O      164.807      72.016       7.172
  O      163.967      74.218       8.048
  O      162.859      72.074       8.932
  H      163.043      74.405       7.792
  H      164.669      71.619       5.170
  H      163.971      73.138       5.679
  H      163.150      71.636       6.033

 6  7  8  9  10  11  12  13  14  15  25  28  32  33  34  35 0
 6-311+G(2d,p)
 ****
 36  39  40 0
 6-311+G(2d,p)
 ****
 1  2  3  4  5  16  17  18  19  20  21  22  23  24 0
 3-21G
 ****
 26  27  29  30  31  37  38  41  42  43  44  45  46  47 0
 3-21G
 ****
 48 0
 3-21G
 ****


