%nproc=1
%NoSave
%Mem=1900MB
#P OB98/GEN NMR

erre ene a

0 1
  C       -1.960      -7.258    -106.875
  O       -1.305      -7.762    -108.020
  H       -2.683      -8.002    -106.531
  H       -2.493      -6.337    -107.115
  H       -1.239      -7.074    -106.073
  P       -0.231      -6.833    -108.766
  C       -0.307      -4.921    -110.498
  O       -1.049      -5.914    -109.797
  C       -1.261      -3.901    -111.132
  O       -2.046      -4.591    -112.133
  C       -2.224      -3.280    -110.107
  O       -2.213      -1.853    -110.130
  C       -3.544      -3.990    -110.394
  O       -4.691      -3.255    -110.030
  C       -3.441      -4.328    -111.884
  N       -4.263      -5.466    -112.288
  C       -5.028      -5.326    -113.444
  O       -5.054      -4.327    -114.154
  N       -5.792      -6.415    -113.783
  C       -5.877      -7.586    -113.090
  O       -6.577      -8.527    -113.445
  C       -5.068      -7.663    -111.864
  C       -4.313      -6.619    -111.522
  O        0.937      -7.547    -109.359
  O        0.229      -5.790    -107.641
  H       -4.549      -2.934    -109.113
  H        1.121      -6.026    -107.322
  H       -6.338      -6.332    -114.624
  H       -5.121      -8.575    -111.284
  H       -3.703      -6.640    -110.623
  H       -3.741      -3.473    -112.491
  H       -3.561      -4.925    -109.816
  H       -1.906      -3.514    -109.085
  H       -0.667      -3.135    -111.647
  H        0.280      -5.425    -111.273
  H        0.374      -4.413    -109.805
  P       -2.227      -0.914    -108.839
  C       -3.783       0.985    -107.891
  O       -3.478       0.077    -108.944
  O       -0.919      -0.305    -108.460
  O       -2.661      -1.914    -107.648
  H       -2.216      -1.585    -106.841
  H       -4.650       1.555    -108.152
  H       -2.955       1.645    -107.738
  H       -3.974       0.437    -106.992

 6  7  8  9  10  11  12  13  14  15  16  26  31  32  33  34  35 0
 6-311+G(2d,p)
 ****
 36  37 0
 6-311+G(2d,p)
 ****
 1  2  3  4  5  17  18  19  20  21  22  23  24  25 0
 3-21G
 ****
 27  28  29  30  38  39  40  41  42  43  44  45 0
 3-21G
 ****


