%nproc=1
%NoSave
%Mem=1900MB
#P OB98/GEN NMR

erre ene a

0 1
  C      235.463      28.729     -10.156
  O      235.958      27.498      -9.673
  H      235.985      29.542      -9.645
  H      234.393      28.813      -9.945
  H      235.638      28.817     -11.232
  P      235.341      26.158     -10.312
  C      233.801      25.550      -8.303
  O      234.970      25.232      -9.049
  C      234.098      25.493      -6.800
  O      234.637      24.188      -6.473
  C      235.104      26.547      -6.339
  O      234.664      27.120      -5.106
  C      236.392      25.765      -6.134
  O      237.258      26.384      -5.181
  C      235.866      24.379      -5.743
  N      236.833      23.325      -6.049
  C      237.723      22.974      -5.029
  O      237.679      23.549      -3.940
  N      238.675      22.014      -5.280
  C      238.770      21.499      -6.467
  N      239.748      20.572      -6.659
  C      237.885      21.878      -7.584
  C      236.948      22.782      -7.308
  O      236.621      25.441     -10.941
  O      234.226      26.370     -11.279
  H      236.725      26.608      -4.392
  H      236.363      24.708     -11.552
  H      238.015      21.432      -8.563
  H      236.256      23.121      -8.073
  H      235.634      24.340      -4.671
  H      236.933      25.703      -7.087
  H      235.249      27.346      -7.065
  H      233.148      25.582      -6.255
  H      240.342      20.347      -5.868
  H      233.013      24.831      -8.549
  H      239.932      20.130      -7.547
  H      233.467      26.558      -8.570
  P      234.339      28.695      -5.141
  C      235.647      29.316      -2.989
  O      234.382      29.230      -3.626
  O      232.788      28.752      -5.527
  O      235.197      29.457      -6.098
  H      232.683      28.944      -6.478
  H      235.520      29.685      -1.993
  H      236.279      29.982      -3.539
  H      236.096      28.345      -2.955

 6  7  8  9  10  11  12  13  14  15  16  26  30  31  32  33  35 0
 6-311+G(2d,p)
 ****
 37  38 0
 6-311+G(2d,p)
 ****
 1  2  3  4  5  17  18  19  20  21  22  23  24  25 0
 3-21G
 ****
 27  28  29  34  36  39  40  41  42  43  44  45  46 0
 3-21G
 ****


