%nproc=1
%NoSave
%Mem=1900MB
#P OB98/GEN NMR

erre ene a

0 1
  C      120.460      -0.377      -3.879
  O      121.303       0.590      -4.463
  P      120.760       2.066      -4.775
  C      121.617       4.466      -4.416
  O      121.856       3.082      -4.186
  C      122.763       5.298      -3.846
  O      122.811       5.199      -2.400
  C      124.144       4.845      -4.298
  O      124.460       4.991      -5.665
  C      125.034       5.566      -3.300
  O      125.245       6.926      -3.676
  C      124.177       5.488      -2.010
  N      124.694       4.496      -1.070
  C      125.668       4.946      -0.187
  O      126.092       6.101      -0.169
  N      126.175       4.009       0.672
  C      125.844       2.685       0.700
  O      126.372       1.889       1.467
  C      124.822       2.266      -0.269
  C      124.300       3.173      -1.098
  O      119.362       2.335      -4.329
  O      120.978       2.212      -6.355
  H      126.038       7.243      -3.204
  H      121.902       2.122      -6.648
  H      126.892       4.310       1.313
  H      124.526       1.224      -0.264
  H      123.545       2.887      -1.823
  H      124.159       6.461      -1.505
  H      126.020       5.097      -3.220
  H      124.235       3.771      -4.089
  H      122.581       6.347      -4.092
  H      120.686       4.754      -3.918
  H      121.492       4.641      -5.490
  P      125.850       4.515      -6.304
  C      126.574       3.331      -8.493
  O      125.530       3.605      -7.584
  O      126.892       4.025      -5.354
  O      126.368       5.873      -6.989
  H      127.344       5.884      -6.974
  H      126.170       2.741      -9.321
  H      127.363       2.753      -8.006
  H      126.985       4.260      -8.897
  H      121.001      -1.291      -3.751
  H      119.618      -0.548      -4.516
  H      120.121      -0.026      -2.927

 3  4  5  6  7  8  9  10  11  12  13  23  28  29  30  31  32 0
 6-311+G(2d,p)
 ****
 33  34 0
 6-311+G(2d,p)
 ****
 1  2  14  15  16  17  18  19  20  21  22  24  25  26  27 0
 3-21G
 ****
 35  36  37  38  39  40  41  42  43  44  45 0
 3-21G
 ****


