%nproc=1
%NoSave
%Mem=1900MB
#P OB98/GEN NMR

erre ene a

0 1
  C     -142.209     218.263     348.423
  O     -142.343     218.196     349.845
  P     -143.527     217.459     350.623
  C     -141.847     215.766     351.735
  O     -143.041     215.981     350.990
  C     -141.711     214.295     352.152
  O     -142.963     213.865     352.774
  C     -141.462     213.361     350.957
  O     -140.487     212.355     351.199
  C     -142.864     212.897     350.587
  O     -142.885     211.712     349.815
  C     -143.537     212.816     351.956
  N     -147.908     211.162     349.902
  C     -146.611     210.847     349.567
  N     -146.443     209.996     348.533
  N     -145.567     211.339     350.176
  C     -145.864     212.247     351.132
  C     -147.114     212.653     351.551
  C     -148.271     212.063     350.905
  O     -149.446     212.291     351.181
  N     -147.032     213.571     352.555
  C     -145.726     213.741     352.742
  N     -144.984     212.944     351.893
  O     -144.890     217.590     350.021
  O     -143.558     218.195     352.056
  H     -143.813     211.527     349.569
  H     -144.489     218.186     352.354
  H     -148.683     210.732     349.416
  H     -145.277     214.405     353.468
  H     -143.341     211.866     352.453
  H     -143.330     213.686     349.985
  H     -147.198     209.672     347.948
  H     -141.040     213.921     350.108
  H     -145.500     209.947     348.154
  H     -140.914     214.205     352.900
  H     -141.927     216.393     352.623
  H     -140.973     216.100     351.170
  P     -139.089     212.115     350.472
  C     -137.778     212.643     352.623
  O     -137.963     212.962     351.247
  O     -139.213     212.889     349.074
  O     -138.735     210.684     350.240
  H     -139.123     212.256     348.344
  H     -137.195     213.444     353.086
  H     -137.229     211.706     352.708
  H     -138.739     212.566     353.125
  H     -141.327     218.816     348.173
  H     -143.066     218.751     348.007
  H     -142.134     217.273     348.025

 3  4  5  6  7  8  9  10  11  12  23  26  30  31 0
 6-311+G(2d,p)
 ****
 33  35  36  37  38 0
 6-311+G(2d,p)
 ****
 1  2  13  14  15  16  17  18  19  20  21  22  24  25 0
 3-21G
 ****
 27  28  29  32  34  39  40  41  42  43  44  45  46  47  48  49 0
 3-21G
 ****


