%nproc=1
%NoSave
%Mem=1900MB
#P OB98/GEN NMR

erre ene a

0 1
  C      337.230     295.135     -75.875
  O      336.861     295.250     -77.252
  P      336.830     296.678     -78.008
  C      334.483     297.023     -77.023
  O      335.721     297.638     -77.350
  C      333.533     297.935     -76.239
  O      334.141     298.364     -74.990
  C      333.112     299.217     -76.976
  O      331.788     299.521     -76.516
  C      334.103     300.238     -76.453
  O      333.694     301.584     -76.648
  C      334.205     299.808     -74.998
  N      336.134     302.995     -71.470
  C      334.871     302.613     -71.744
  N      334.437     301.735     -72.672
  C      335.466     301.190     -73.332
  C      336.815     301.460     -73.155
  C      337.145     302.422     -72.178
  N      338.433     302.843     -71.930
  N      337.590     300.724     -74.038
  C      336.716     300.033     -74.741
  N      335.423     300.268     -74.352
  O      336.742     296.570     -79.494
  O      338.214     297.366     -77.588
  H      334.297     302.158     -76.126
  H      338.629     297.755     -78.384
  H      334.099     303.092     -71.140
  H      336.959     299.356     -75.554
  H      333.353     300.183     -74.417
  H      335.067     300.104     -76.983
  H      333.135     299.113     -78.071
  H      332.647     297.347     -75.969
  H      334.680     296.114     -76.429
  H      338.556     303.600     -71.276
  H      339.178     302.526     -72.529
  H      333.995     296.702     -77.954
  P      330.511     299.446     -77.481
  C      330.399     301.910     -78.179
  O      330.709     300.581     -78.598
  O      329.190     299.465     -76.780
  O      330.715     298.087     -78.313
  H      329.868     297.801     -78.692
  H      329.307     302.046     -78.140
  H      330.833     302.622     -78.903
  H      330.828     302.113     -77.200
  H      337.184     294.108     -75.578
  H      336.556     295.710     -75.276
  H      338.227     295.500     -75.741

 3  4  5  6  7  8  9  10  11  12  22  25  29  30  31  32 0
 6-311+G(2d,p)
 ****
 33  36  37 0
 6-311+G(2d,p)
 ****
 1  2  13  14  15  16  17  18  19  20  21  23  24  26 0
 3-21G
 ****
 27  28  34  35  38  39  40  41  42  43  44  45  46  47  48 0
 3-21G
 ****


