%nproc=1
%NoSave
%Mem=1900MB
#P OB98/GEN NMR

erre ene a

0 1
  C      -73.786     -59.484     742.111
  O      -74.080     -59.303     743.484
  H      -74.173     -60.456     741.797
  H      -72.701     -59.477     741.957
  H      -74.256     -58.704     741.506
  P      -73.751     -57.885     744.165
  C      -75.789     -58.211     745.709
  O      -74.404     -57.908     745.622
  C      -76.347     -57.721     747.048
  O      -75.972     -56.344     747.271
  C      -77.867     -57.754     747.120
  O      -78.344     -59.064     747.322
  C      -78.111     -56.801     748.281
  O      -77.921     -57.466     749.544
  C      -77.024     -55.734     748.050
  N      -77.538     -54.526     747.392
  C      -78.278     -53.662     748.194
  O      -78.526     -53.874     749.377
  N      -78.738     -52.531     747.568
  C      -78.641     -52.254     746.233
  O      -79.154     -51.273     745.707
  C      -77.877     -53.226     745.434
  C      -77.367     -54.300     746.040
  O      -74.077     -56.681     743.343
  O      -72.180     -57.971     744.472
  H      -78.436     -58.298     749.493
  H      -71.692     -57.431     743.826
  H      -79.287     -51.894     748.122
  H      -77.769     -53.034     744.379
  H      -76.798     -55.024     745.472
  H      -76.577     -55.432     749.005
  H      -79.133     -56.403     748.281
  H      -78.300     -57.317     746.213
  H      -75.903     -58.333     747.846
  H      -75.920     -59.297     745.633
  H      -76.314     -57.735     744.869
  P      -79.691     -59.553     746.589
  C      -78.672     -61.905     746.436
  O      -79.809     -61.142     746.798
  O      -79.855     -59.080     745.185
  O      -80.858     -58.974     747.529
  H      -81.412     -58.364     747.009
  H      -78.866     -62.942     746.617
  H      -77.832     -61.592     747.019
  H      -78.460     -61.758     745.398

 6  7  8  9  10  11  12  13  14  15  16  26  31  32  33  34  35 0
 6-311+G(2d,p)
 ****
 36  37 0
 6-311+G(2d,p)
 ****
 1  2  3  4  5  17  18  19  20  21  22  23  24  25 0
 3-21G
 ****
 27  28  29  30  38  39  40  41  42  43  44  45 0
 3-21G
 ****


