%nproc=1
%NoSave
%Mem=1900MB
#P OB98/GEN NMR

erre ene a

0 1
  C      -69.146     -12.875     -57.159
  O      -70.013     -11.928     -56.579
  P      -71.467     -12.278     -56.026
  C      -72.364     -13.740     -54.052
  O      -71.343     -13.520     -55.019
  C      -72.689     -15.235     -53.926
  O      -73.489     -15.630     -55.070
  C      -71.415     -16.095     -53.952
  O      -71.419     -17.167     -53.017
  C      -71.278     -16.455     -55.425
  O      -70.460     -17.590     -55.660
  C      -72.738     -16.584     -55.850
  N      -72.140     -18.266     -60.607
  C      -71.938     -18.935     -59.416
  N      -71.330     -20.138     -59.508
  N      -72.271     -18.449     -58.249
  C      -72.765     -17.190     -58.307
  C      -73.012     -16.429     -59.426
  C      -72.671     -16.991     -60.711
  O      -72.727     -16.388     -61.783
  N      -73.453     -15.173     -59.100
  C      -73.441     -15.160     -57.782
  N      -72.998     -16.352     -57.256
  O      -72.578     -12.288     -57.023
  O      -71.732     -11.049     -55.011
  H      -70.848     -18.340     -55.173
  H      -72.690     -10.852     -55.043
  H      -71.790     -18.661     -61.472
  H      -73.710     -14.312     -57.163
  H      -73.131     -17.579     -55.631
  H      -70.799     -15.608     -55.928
  H      -70.932     -20.471     -60.375
  H      -70.546     -15.501     -53.650
  H      -70.949     -20.529     -58.650
  H      -73.290     -15.398     -53.025
  H      -73.244     -13.190     -54.403
  H      -72.072     -13.325     -53.085
  P      -70.178     -17.946     -52.382
  C      -68.180     -17.318     -50.903
  O      -69.105     -16.872     -51.877
  O      -69.438     -18.631     -53.623
  O      -70.544     -18.978     -51.367
  H      -69.130     -19.522     -53.368
  H      -67.699     -16.446     -50.451
  H      -67.415     -17.937     -51.380
  H      -68.684     -17.893     -50.120
  H      -68.235     -12.394     -57.449
  H      -69.612     -13.305     -58.021
  H      -68.932     -13.645     -56.448

 3  4  5  6  7  8  9  10  11  12  23  26  30  31 0
 6-311+G(2d,p)
 ****
 33  35  36  37  38 0
 6-311+G(2d,p)
 ****
 1  2  13  14  15  16  17  18  19  20  21  22  24  25 0
 3-21G
 ****
 27  28  29  32  34  39  40  41  42  43  44  45  46  47  48  49 0
 3-21G
 ****


