%nproc=1
%NoSave
%Mem=1900MB
#P OB98/GEN NMR

erre ene a

0 1
  C      -27.867    -353.725      84.778
  O      -28.176    -354.747      85.708
  P      -29.397    -354.577      86.728
  C      -27.782    -354.503      88.716
  O      -28.918    -355.148      88.154
  C      -27.660    -354.798      90.213
  O      -28.499    -353.866      90.949
  C      -28.087    -356.219      90.625
  O      -27.246    -356.597      91.721
  C      -29.508    -356.010      91.125
  O      -29.953    -357.053      91.981
  C      -29.360    -354.649      91.799
  N      -32.507    -352.391      95.145
  C      -31.321    -353.020      95.306
  N      -30.555    -353.618      94.370
  C      -31.128    -353.519      93.161
  C      -32.345    -352.939      92.842
  C      -33.043    -352.332      93.904
  N      -34.235    -351.659      93.751
  N      -32.618    -353.090      91.496
  C      -31.586    -353.751      91.010
  N      -30.631    -353.978      91.970
  O      -30.703    -355.116      86.251
  O      -29.480    -353.000      86.981
  H      -30.797    -356.783      92.389
  H      -30.252    -352.629      86.509
  H      -30.930    -353.042      96.321
  H      -31.481    -354.091      89.988
  H      -28.887    -354.728      92.786
  H      -30.192    -355.956      90.269
  H      -28.026    -356.951      89.819
  H      -26.627    -354.605      90.515
  H      -27.899    -353.427      88.570
  H      -34.584    -351.153      94.550
  H      -34.518    -351.371      92.815
  H      -26.876    -354.825      88.193
  P      -25.692    -356.200      91.703
  C      -25.173    -358.704      91.878
  O      -24.905    -357.412      92.395
  O      -25.372    -354.841      92.231
  O      -25.285    -356.344      90.154
  H      -24.449    -355.868      89.991
  H      -26.113    -359.077      92.309
  H      -24.358    -359.379      92.164
  H      -25.258    -358.688      90.790
  H      -27.025    -354.022      84.188
  H      -27.634    -352.823      85.304
  H      -28.709    -353.558      84.139

 3  4  5  6  7  8  9  10  11  12  22  25  29  30  31  32 0
 6-311+G(2d,p)
 ****
 33  36  37 0
 6-311+G(2d,p)
 ****
 1  2  13  14  15  16  17  18  19  20  21  23  24  26 0
 3-21G
 ****
 27  28  34  35  38  39  40  41  42  43  44  45  46  47  48 0
 3-21G
 ****


