%nproc=1
%NoSave
%Mem=1900MB
#P OB98/GEN NMR

erre ene a

0 1
  C     -607.016     226.338    -113.923
  O     -606.854     225.225    -113.068
  H     -608.027     226.731    -113.796
  H     -606.887     226.029    -114.961
  H     -606.302     227.131    -113.678
  P     -605.383     224.634    -112.834
  C     -605.497     225.286    -110.344
  O     -604.782     225.407    -111.559
  C     -605.018     226.325    -109.319
  O     -605.298     227.656    -109.841
  C     -605.704     226.214    -107.950
  O     -604.760     226.651    -106.962
  C     -606.833     227.220    -108.088
  O     -607.358     227.586    -106.832
  C     -606.130     228.328    -108.876
  N     -607.072     229.248    -109.511
  C     -607.499     230.324    -108.736
  O     -607.155     230.502    -107.571
  N     -608.395     231.178    -109.332
  C     -608.930     231.019    -110.579
  O     -609.750     231.799    -111.050
  C     -608.470     229.845    -111.332
  C     -607.572     229.028    -110.773
  O     -604.494     224.617    -114.032
  O     -605.635     223.163    -112.258
  H     -606.710     228.129    -106.338
  H     -604.902     222.568    -112.520
  H     -608.710     231.960    -108.791
  H     -608.885     229.689    -112.321
  H     -607.216     228.152    -111.305
  H     -605.471     228.917    -108.217
  H     -607.658     226.801    -108.674
  H     -606.056     225.207    -107.724
  H     -603.933     226.242    -109.223
  H     -605.328     224.277    -109.948
  H     -606.569     225.421    -110.528
  P     -603.680     225.658    -106.317
  C     -601.648     226.899    -107.299
  O     -602.362     225.671    -107.229
  O     -604.204     224.295    -106.012
  O     -603.201     226.396    -104.981
  H     -602.910     225.732    -104.320
  H     -600.795     226.780    -107.934
  H     -601.326     227.181    -106.318
  H     -602.286     227.660    -107.698

 6  7  8  9  10  11  12  13  14  15  16  26  31  32  33  34  35 0
 6-311+G(2d,p)
 ****
 36  37 0
 6-311+G(2d,p)
 ****
 1  2  3  4  5  17  18  19  20  21  22  23  24  25 0
 3-21G
 ****
 27  28  29  30  38  39  40  41  42  43  44  45 0
 3-21G
 ****


