%nproc=1
%NoSave
%Mem=1900MB
#P OB98/GEN NMR

erre ene a

0 1
  C       58.179     350.795     772.804
  O       57.365     350.508     771.664
  P       56.059     349.577     771.765
  C       57.062     347.277     772.327
  O       56.299     348.382     772.811
  C       56.766     345.969     773.068
  O       55.333     345.754     773.202
  C       57.343     344.709     772.405
  O       57.642     343.802     773.469
  C       56.165     344.211     771.590
  O       56.267     342.844     771.219
  C       55.017     344.507     772.556
  N       49.992     343.641     773.055
  C       50.994     343.654     773.955
  N       52.295     343.924     773.755
  C       52.528     344.259     772.474
  C       51.603     344.303     771.443
  C       50.277     343.958     771.773
  N       49.261     343.904     770.847
  N       52.214     344.651     770.254
  C       53.484     344.809     770.566
  N       53.723     344.591     771.898
  O       55.524     349.127     770.444
  O       54.977     350.504     772.501
  H       55.419     342.562     770.835
  H       54.126     350.432     772.033
  H       50.714     343.390     774.980
  H       54.271     345.063     769.873
  H       54.940     343.739     773.334
  H       56.078     344.801     770.671
  H       58.230     344.900     771.795
  H       57.158     346.071     774.082
  H       58.124     347.525     772.423
  H       48.364     343.561     771.157
  H       49.478     344.015     769.867
  H       56.849     347.151     771.259
  P       59.000     343.901     774.306
  C       60.830     342.871     772.843
  O       60.186     344.068     773.242
  O       59.212     342.812     775.298
  O       58.936     345.336     775.011
  H       59.557     345.363     775.762
  H       61.515     342.544     773.628
  H       61.409     343.063     771.929
  H       60.100     342.086     772.638
  H       58.990     351.429     772.513
  H       58.566     349.882     773.205
  H       57.590     351.289     773.548

 3  4  5  6  7  8  9  10  11  12  22  25  29  30  31  32 0
 6-311+G(2d,p)
 ****
 33  36  37 0
 6-311+G(2d,p)
 ****
 1  2  13  14  15  16  17  18  19  20  21  23  24  26 0
 3-21G
 ****
 27  28  34  35  38  39  40  41  42  43  44  45  46  47  48 0
 3-21G
 ****


