%nproc=1
%NoSave
%Mem=1900MB
#P OB98/GEN NMR

erre ene a

0 1
  C       86.555     -78.552      29.238
  O       86.355     -77.165      29.034
  H       85.579     -79.042      29.284
  H       87.080     -78.721      30.181
  H       87.125     -78.975      28.408
  P       87.678     -76.263      28.912
  C       87.840     -76.168      31.495
  O       88.472     -76.543      30.278
  C       88.511     -76.857      32.681
  O       88.332     -78.282      32.605
  C       90.016     -76.632      32.768
  O       90.307     -75.374      33.355
  C       90.424     -77.784      33.673
  O       90.143     -77.447      35.047
  C       89.490     -78.918      33.212
  N       90.883     -83.790      32.383
  C       90.484     -83.149      33.503
  N       90.171     -81.845      33.659
  C       90.303     -81.181      32.498
  C       90.699     -81.702      31.275
  C       90.989     -83.076      31.239
  N       91.387     -83.729      30.091
  N       90.720     -80.719      30.308
  C       90.291     -79.635      30.925
  N       90.060     -79.854      32.261
  O       87.456     -74.835      28.555
  O       88.525     -77.108      27.846
  H       90.695     -76.676      35.278
  H       88.419     -78.062      28.004
  H       90.403     -83.766      34.393
  H       90.116     -78.677      30.449
  H       89.130     -79.516      34.058
  H       91.492     -78.004      33.612
  H       90.498     -76.755      31.792
  H       88.010     -76.514      33.595
  H       86.776     -76.425      31.468
  H       91.737     -84.670      30.189
  H       91.584     -83.172      29.272
  H       87.930     -75.081      31.590
  P       91.610     -74.548      32.918
  C       93.130     -75.430      34.793
  O       92.878     -75.410      33.393
  O       91.629     -73.123      33.353
  O       91.655     -74.684      31.325
  H       91.955     -73.847      30.921
  H       93.993     -76.031      34.992
  H       92.284     -75.842      35.302
  H       93.303     -74.432      35.139

 6  7  8  9  10  11  12  13  14  15  25  28  32  33  34  35 0
 6-311+G(2d,p)
 ****
 36  39  40 0
 6-311+G(2d,p)
 ****
 1  2  3  4  5  16  17  18  19  20  21  22  23  24 0
 3-21G
 ****
 26  27  29  30  31  37  38  41  42  43  44  45  46  47 0
 3-21G
 ****
 48 0
 3-21G
 ****


