%nproc=1
%NoSave
%Mem=1900MB
#P OB98/GEN NMR

erre ene a

0 1
  C       63.811     521.552    -528.328
  O       63.709     522.877    -527.854
  H       63.470     521.521    -529.366
  H       63.186     520.880    -527.734
  H       64.853     521.214    -528.296
  P       64.087     523.185    -526.327
  C       61.534     523.223    -525.984
  O       62.780     523.816    -525.641
  C       60.446     524.312    -526.110
  O       60.336     524.975    -524.823
  C       60.791     525.371    -527.171
  O       59.751     525.567    -528.129
  C       61.231     526.580    -526.339
  O       61.054     527.824    -526.976
  C       60.433     526.396    -525.036
  N       61.045     527.054    -523.880
  C       60.501     528.272    -523.477
  O       59.531     528.834    -524.002
  N       61.112     528.863    -522.401
  C       62.177     528.375    -521.712
  O       62.680     528.948    -520.745
  C       62.721     527.097    -522.201
  C       62.145     526.500    -523.240
  O       65.344     523.959    -526.115
  O       64.179     521.728    -525.655
  H       60.096     528.006    -527.022
  H       65.118     521.475    -525.550
  H       60.723     529.745    -522.090
  H       63.586     526.690    -521.683
  H       62.513     525.563    -523.629
  H       59.424     526.798    -525.149
  H       62.312     526.474    -526.118
  H       61.642     525.037    -527.795
  H       59.485     523.825    -526.314
  H       61.263     522.511    -525.195
  H       61.624     522.687    -526.933
  P       59.525     524.670    -529.424
  C       61.526     525.696    -530.784
  O       60.120     525.440    -530.692
  O       58.159     524.079    -529.575
  O       60.566     523.442    -529.212
  H       60.151     522.644    -529.620
  H       61.735     526.217    -531.695
  H       62.059     524.768    -530.774
  H       61.835     526.294    -529.952

 6  7  8  9  10  11  12  13  14  15  16  26  31  32  33  34  35 0
 6-311+G(2d,p)
 ****
 36  37 0
 6-311+G(2d,p)
 ****
 1  2  3  4  5  17  18  19  20  21  22  23  24  25 0
 3-21G
 ****
 27  28  29  30  38  39  40  41  42  43  44  45 0
 3-21G
 ****


