%nproc=1
%NoSave
%Mem=1900MB
#P OB98/GEN NMR

erre ene a

0 1
  C      -78.727      36.170     -38.232
  O      -79.823      35.817     -37.412
  H      -78.050      36.841     -37.696
  H      -78.184      35.260     -38.501
  H      -79.083      36.652     -39.147
  P      -80.689      37.032     -36.822
  C      -82.662      36.925     -38.498
  O      -81.519      37.640     -38.054
  C      -82.313      36.081     -39.717
  O      -81.327      35.088     -39.371
  C      -83.481      35.299     -40.307
  O      -84.320      36.119     -41.107
  C      -82.736      34.271     -41.146
  O      -82.334      34.864     -42.394
  C      -81.500      33.973     -40.284
  N      -80.116      29.038     -39.966
  C      -79.832      29.997     -40.876
  N      -80.242      31.280     -40.904
  C      -81.018      31.556     -39.842
  C      -81.392      30.684     -38.834
  C      -80.913      29.366     -38.925
  N      -81.222      28.392     -38.000
  N      -82.182      31.324     -37.904
  C      -82.285      32.562     -38.340
  N      -81.603      32.750     -39.513
  O      -79.592      38.162     -36.522
  O      -81.490      36.713     -35.604
  H      -83.122      35.312     -42.757
  H      -79.853      38.650     -35.719
  H      -79.183      29.691     -41.694
  H      -82.833      33.352     -37.840
  H      -80.590      33.916     -40.892
  H      -83.338      33.390     -41.381
  H      -84.050      34.784     -39.524
  H      -81.871      36.745     -40.472
  H      -83.453      37.634     -38.767
  H      -80.697      27.535     -38.008
  H      -81.814      28.651     -37.218
  H      -83.019      36.288     -37.682
  P      -85.560      36.839     -40.383
  C      -85.008      39.342     -40.782
  O      -84.998      38.251     -39.869
  O      -85.728      35.996     -39.032
  O      -86.822      36.879     -41.174
  H      -86.649      36.064     -38.712
  H      -84.607      40.211     -40.304
  H      -86.013      39.538     -41.093
  H      -84.411      39.098     -41.636

 6  7  8  9  10  11  12  13  14  15  25  28  32  33  34  35 0
 6-311+G(2d,p)
 ****
 36  39  40 0
 6-311+G(2d,p)
 ****
 1  2  3  4  5  16  17  18  19  20  21  22  23  24 0
 3-21G
 ****
 26  27  29  30  31  37  38  41  42  43  44  45  46  47  48 0
 3-21G
 ****


