%nproc=1
%NoSave
%Mem=1900MB
#P OB98/GEN NMR

erre ene a

0 1
  C      579.745     112.971    -243.119
  O      580.912     113.457    -242.490
  H      579.667     113.418    -244.113
  H      578.864     113.254    -242.536
  H      579.792     111.884    -243.222
  P      581.266     112.855    -241.046
  C      582.913     110.969    -241.726
  O      581.608     111.298    -241.278
  C      583.670     110.185    -240.658
  O      582.978     108.922    -240.421
  C      585.124     109.849    -241.026
  O      585.909     109.893    -239.827
  C      585.035     108.401    -241.479
  O      586.285     107.723    -241.406
  C      583.974     107.879    -240.510
  N      580.602     104.343    -239.308
  C      580.919     105.531    -238.677
  N      580.230     105.826    -237.553
  N      581.830     106.360    -239.114
  C      582.417     105.957    -240.269
  C      582.199     104.802    -240.986
  C      581.206     103.878    -240.473
  O      580.897     102.802    -240.976
  N      583.017     104.745    -242.086
  C      583.725     105.859    -242.038
  N      583.394     106.626    -240.950
  O      579.837     112.826    -240.322
  O      582.277     113.622    -240.262
  H      586.628     107.820    -240.494
  H      579.707     113.640    -239.801
  H      579.902     103.734    -238.921
  H      584.481     106.154    -242.750
  H      584.376     107.710    -239.504
  H      584.675     108.349    -242.517
  H      579.484     105.261    -237.184
  H      585.562     110.508    -241.779
  H      580.415     106.719    -237.101
  H      583.628     110.748    -239.715
  H      583.458     111.896    -241.944
  H      582.840     110.376    -242.642
  P      587.088     110.975    -239.738
  C      585.518     113.050    -239.677
  O      586.550     112.347    -240.361
  O      588.125     110.465    -240.850
  O      587.731     111.076    -238.394
  H      589.025     110.741    -240.612
  H      585.273     113.940    -240.219
  H      585.854     113.311    -238.695
  H      584.651     112.427    -239.603

 6  7  8  9  10  11  12  13  14  15  26  29  33  34 0
 6-311+G(2d,p)
 ****
 36  38  39  40  41 0
 6-311+G(2d,p)
 ****
 1  2  3  4  5  16  17  18  19  20  21  22  23  24  25 0
 3-21G
 ****
 27  28  30  31  32  35  37  42  43  44  45  46  47 0
 3-21G
 ****
 48  49 0
 3-21G
 ****


