%nproc=1
%NoSave
%Mem=1900MB
#P OB98/GEN NMR

erre ene a

0 1
  C       97.267    -247.282     -98.886
  O       96.156    -246.399     -98.723
  P       96.196    -244.910     -99.324
  C       93.646    -244.680     -99.373
  O       94.862    -244.129     -98.880
  C       92.394    -244.073     -98.731
  O       92.130    -244.673     -97.437
  C       92.448    -242.555     -98.523
  O       91.106    -242.089     -98.689
  C       92.884    -242.444     -97.070
  O       92.604    -241.172     -96.507
  C       92.122    -243.623     -96.449
  N       92.710    -244.062     -95.186
  C       92.043    -243.697     -94.016
  O       91.038    -242.985     -94.072
  N       92.555    -244.102     -92.805
  C       93.689    -244.730     -92.769
  N       94.160    -245.086     -91.543
  C       94.475    -245.061     -93.974
  C       93.924    -244.710     -95.139
  O       96.500    -244.835    -100.785
  O       97.346    -244.182     -98.471
  H       93.036    -241.118     -95.628
  H       97.769    -243.497     -99.026
  H       95.429    -245.565     -93.894
  H       94.418    -244.913     -96.079
  H       91.073    -243.355     -96.262
  H       93.966    -242.612     -96.993
  H       93.129    -242.047     -99.207
  H       91.541    -244.329     -99.372
  H       93.606    -244.815     -90.737
  H       93.654    -245.761     -99.190
  H       95.078    -245.474     -91.393
  H       93.610    -244.539    -100.462
  P       90.662    -241.227     -99.961
  C       88.504    -242.575    -100.234
  O       89.062    -241.287    -100.032
  O       91.355    -241.581    -101.237
  O       90.955    -239.700     -99.551
  H       90.975    -239.151    -100.354
  H       87.429    -242.528    -100.054
  H       88.950    -243.304     -99.548
  H       88.674    -242.893    -101.265
  H       97.049    -248.220     -98.419
  H       98.135    -246.851     -98.432
  H       97.450    -247.437     -99.929

 3  4  5  6  7  8  9  10  11  12  13  23  27  28  29  30  32 0
 6-311+G(2d,p)
 ****
 34  35 0
 6-311+G(2d,p)
 ****
 1  2  14  15  16  17  18  19  20  21  22  24  25  26 0
 3-21G
 ****
 31  33  36  37  38  39  40  41  42  43  44  45  46 0
 3-21G
 ****


