%nproc=1
%NoSave
%Mem=1900MB
#P OB98/GEN NMR

erre ene a

0 1
  C      135.181       2.158    -114.539
  O      134.007       2.797    -114.034
  P      133.960       3.025    -112.444
  C      132.314       1.101    -111.885
  O      133.635       1.607    -111.762
  C      132.154      -0.214    -111.114
  O      132.890      -1.288    -111.771
  C      132.661      -0.142    -109.664
  O      131.798      -0.979    -108.883
  C      134.046      -0.757    -109.782
  O      134.594      -1.150    -108.534
  C      133.750      -1.878    -110.770
  N      137.993      -4.558    -109.864
  C      137.005      -4.130    -109.049
  N      135.905      -3.415    -109.368
  C      135.881      -3.152    -110.686
  C      136.816      -3.518    -111.640
  C      137.921      -4.259    -111.183
  N      138.944      -4.680    -111.999
  N      136.454      -3.038    -112.891
  C      135.358      -2.337    -112.666
  N      134.933      -2.445    -111.373
  O      132.622       3.873    -112.228
  O      135.167       3.717    -111.905
  H      135.497      -1.505    -108.663
  H      132.831       4.820    -112.127
  H      137.113      -4.395    -108.001
  H      134.838      -1.736    -113.400
  H      133.197      -2.704    -110.303
  H      134.732      -0.024    -110.224
  H      132.657       0.868    -109.245
  H      131.093      -0.491    -111.123
  H      132.075       0.929    -112.937
  H      139.696      -5.204    -111.578
  H      138.933      -4.468    -112.986
  H      131.607       1.858    -111.528
  P      130.610      -0.296    -108.046
  C      132.190      -0.111    -106.033
  O      131.359       0.590    -106.936
  O      130.117      -1.544    -107.167
  O      129.530       0.357    -108.842
  H      130.867      -1.984    -106.729
  H      132.696       0.611    -105.389
  H      132.941      -0.690    -106.578
  H      131.585      -0.778    -105.409
  H      135.104       2.059    -115.602
  H      135.278       1.189    -114.096
  H      136.040       2.748    -114.297

 3  4  5  6  7  8  9  10  11  12  22  25  29  30  31  32 0
 6-311+G(2d,p)
 ****
 33  36  37 0
 6-311+G(2d,p)
 ****
 1  2  13  14  15  16  17  18  19  20  21  23  24  26 0
 3-21G
 ****
 27  28  34  35  38  39  40  41  42  43  44  45  46  47  48 0
 3-21G
 ****


