%nproc=1
%NoSave
%Mem=1900MB
#P OB98/GEN NMR

erre ene a

0 1
  C      -89.909    -551.682     286.025
  O      -90.712    -550.721     286.724
  P      -91.474    -549.593     285.869
  C      -93.825    -550.546     286.338
  O      -92.866    -550.185     285.349
  C      -95.236    -550.666     285.711
  O      -95.583    -549.434     285.043
  C      -95.341    -551.802     284.690
  O      -96.451    -552.676     284.926
  C      -95.348    -551.076     283.348
  O      -95.958    -551.831     282.303
  C      -95.999    -549.732     283.692
  N      -95.621    -548.685     282.739
  C      -96.364    -548.622     281.560
  O      -97.240    -549.440     281.263
  N      -96.005    -547.635     280.678
  C      -94.978    -546.760     280.841
  O      -94.697    -545.915     279.993
  C      -94.189    -546.900     282.070
  C      -94.555    -547.847     282.949
  O      -90.664    -548.885     284.852
  O      -91.964    -548.565     287.019
  H      -96.848    -552.122     282.605
  H      -91.856    -547.658     286.671
  H      -96.558    -547.561     279.834
  H      -93.340    -546.248     282.215
  H      -93.982    -547.995     283.864
  H      -97.089    -549.808     283.682
  H      -94.298    -550.901     283.064
  H      -94.472    -552.469     284.730
  H      -95.948    -550.823     286.539
  H      -93.851    -549.795     287.115
  H      -93.533    -551.484     286.822
  P      -96.470    -553.850     286.009
  C      -97.912    -552.562     287.726
  O      -96.681    -553.183     287.458
  O      -95.338    -554.828     285.922
  O      -97.853    -554.601     285.722
  H      -97.741    -555.553     285.813
  H      -97.767    -551.855     288.562
  H      -98.673    -553.281     288.026
  H      -98.269    -551.967     286.867
  H      -89.471    -552.360     286.728
  H      -89.134    -551.176     285.488
  H      -90.522    -552.227     285.338

 3  4  5  6  7  8  9  10  11  12  13  23  28  29  30  31  32 0
 6-311+G(2d,p)
 ****
 33  34 0
 6-311+G(2d,p)
 ****
 1  2  14  15  16  17  18  19  20  21  22  24  25  26  27 0
 3-21G
 ****
 35  36  37  38  39  40  41  42  43  44  45 0
 3-21G
 ****


