%nproc=1
%NoSave
%Mem=1900MB
#P OB98/GEN NMR

erre ene a

0 1
  C     -147.971      39.603      14.904
  O     -148.880      38.615      15.346
  H     -146.978      39.154      14.817
  H     -147.926      40.420      15.628
  H     -148.271      39.989      13.926
  P     -150.426      39.033      15.431
  C     -151.962      39.998      17.299
  O     -150.649      39.633      16.904
  C     -152.075      41.521      17.381
  O     -151.084      42.009      18.327
  C     -151.814      42.222      16.043
  O     -152.676      43.358      15.934
  C     -150.371      42.680      16.165
  O     -150.044      43.776      15.321
  C     -150.299      43.017      17.658
  N     -148.928      43.027      18.166
  C     -148.223      44.223      18.085
  O     -148.694      45.288      17.687
  N     -146.913      44.166      18.487
  C     -146.251      43.056      18.924
  O     -145.070      43.064      19.248
  C     -147.046      41.821      18.980
  C     -148.327      41.862      18.602
  O     -151.186      37.626      15.492
  O     -150.921      39.906      14.328
  H     -151.409      37.319      14.592
  H     -150.726      44.467      15.446
  H     -146.388      45.026      18.436
  H     -146.553      40.917      19.314
  H     -148.936      40.964      18.617
  H     -150.773      43.986      17.854
  H     -149.693      41.853      15.922
  H     -151.959      41.565      15.184
  H     -153.061      41.786      17.780
  H     -152.175      39.567      18.282
  H     -152.681      39.603      16.572
  P     -153.813      43.317      14.801
  C     -153.948      44.170      12.333
  O     -153.163      43.999      13.500
  O     -154.844      44.406      15.348
  O     -154.379      41.951      14.594
  H     -154.414      45.168      15.775
  H     -153.358      44.637      11.572
  H     -154.792      44.787      12.558
  H     -154.286      43.215      11.987

 6  7  8  9  10  11  12  13  14  15  16  27  31  32  33  34  35 0
 6-311+G(2d,p)
 ****
 36  37 0
 6-311+G(2d,p)
 ****
 1  2  3  4  5  17  18  19  20  21  22  23  24  25 0
 3-21G
 ****
 26  28  29  30  38  39  40  41  42  43  44  45 0
 3-21G
 ****


