%nproc=1
%NoSave
%Mem=1900MB
#P OB98/GEN NMR

erre ene a

0 1
  C     -304.665     151.817     123.721
  O     -304.056     151.080     122.658
  P     -302.539     151.468     122.305
  C     -301.331     153.474     121.188
  O     -302.525     152.985     121.781
  C     -301.634     154.169     119.858
  O     -302.202     153.271     118.886
  C     -302.622     155.320     119.990
  O     -301.962     156.475     120.477
  C     -303.115     155.471     118.555
  O     -302.215     156.283     117.775
  C     -303.112     154.023     118.041
  N     -307.195     152.956     115.233
  C     -306.116     153.774     114.953
  N     -306.114     154.373     113.744
  N     -305.129     153.982     115.786
  C     -305.264     153.317     116.956
  C     -306.269     152.458     117.337
  C     -307.358     152.238     116.409
  O     -308.321     151.506     116.601
  N     -306.027     151.922     118.578
  C     -304.946     152.557     118.993
  N     -304.406     153.365     118.023
  O     -302.233     150.603     120.992
  O     -301.575     151.160     123.402
  H     -302.588     156.406     116.884
  H     -301.599     149.892     121.205
  H     -307.931     152.836     114.559
  H     -304.502     152.448     119.972
  H     -302.725     153.961     117.018
  H     -304.091     155.965     118.510
  H     -306.839     154.253     113.054
  H     -303.454     155.029     120.644
  H     -305.329     154.972     113.515
  H     -300.682     154.542     119.458
  H     -300.631     152.653     121.023
  H     -300.847     154.165     121.887
  P     -302.520     157.144     121.822
  C     -303.751     159.350     122.417
  O     -303.339     158.454     121.405
  O     -301.198     157.722     122.516
  O     -303.238     156.202     122.733
  H     -301.211     157.515     123.470
  H     -303.800     160.358     121.996
  H     -303.060     159.352     123.262
  H     -304.748     159.065     122.766
  H     -305.668     151.473     123.864
  H     -304.677     152.858     123.472
  H     -304.106     151.672     124.622

 3  4  5  6  7  8  9  10  11  12  23  26  30  31 0
 6-311+G(2d,p)
 ****
 33  35  36  37  38 0
 6-311+G(2d,p)
 ****
 1  2  13  14  15  16  17  18  19  20  21  22  24  25 0
 3-21G
 ****
 27  28  29  32  34  39  40  41  42  43  44  45  46  47  48  49 0
 3-21G
 ****


