%nproc=1
%NoSave
%Mem=1900MB
#P OB98/GEN NMR

erre ene a

0 1
  C      -32.184       4.956      11.034
  O      -30.821       4.726      10.671
  P      -29.941       3.697      11.523
  C      -27.896       5.243      11.864
  O      -28.387       4.027      11.312
  C      -26.682       5.729      11.067
  O      -27.083       6.437       9.870
  C      -25.827       6.726      11.838
  O      -25.102       6.224      12.940
  C      -25.034       7.397      10.729
  O      -23.892       6.626      10.360
  C      -26.068       7.422       9.579
  N      -26.656       8.747       9.377
  C      -25.919       9.628       8.593
  O      -24.818       9.355       8.121
  N      -26.480      10.861       8.396
  C      -27.659      11.299       8.923
  O      -28.104      12.423       8.733
  C      -28.381      10.331       9.764
  C      -27.855       9.118       9.950
  O      -30.311       2.259      11.384
  O      -30.191       4.189      13.034
  H      -23.182       6.832      10.998
  H      -30.290       3.394      13.593
  H      -25.964      11.511       7.823
  H      -29.317      10.645      10.203
  H      -28.371       8.389      10.565
  H      -25.598       7.119       8.635
  H      -24.670       8.382      11.034
  H      -26.498       7.493      12.252
  H      -26.100       4.859      10.755
  H      -27.626       5.092      12.911
  H      -28.701       5.987      11.856
  P      -25.043       6.960      14.363
  C      -22.782       6.242      15.409
  O      -24.180       6.056      15.366
  O      -26.313       7.541      14.888
  O      -24.023       8.165      14.053
  H      -24.282       8.934      14.593
  H      -22.359       5.536      16.128
  H      -22.541       7.257      15.732
  H      -22.341       6.048      14.428
  H      -32.617       5.667      10.362
  H      -32.228       5.337      12.033
  H      -32.728       4.036      10.979

 3  4  5  6  7  8  9  10  11  12  13  23  28  29  30  31  32 0
 6-311+G(2d,p)
 ****
 33  34 0
 6-311+G(2d,p)
 ****
 1  2  14  15  16  17  18  19  20  21  22  24  25  26  27 0
 3-21G
 ****
 35  36  37  38  39  40  41  42  43  44  45 0
 3-21G
 ****


