%nproc=1
%NoSave
%Mem=1900MB
#P OB98/GEN NMR

erre ene a

0 1
  C     -107.896      -2.037      10.690
  O     -106.815      -1.297      11.226
  P     -105.958      -1.946      12.416
  C     -103.822      -0.535      11.827
  O     -104.807      -0.888      12.779
  C     -102.781       0.394      12.459
  O     -103.395       1.688      12.708
  C     -102.208      -0.107      13.791
  O     -100.834       0.298      13.841
  C     -103.026       0.657      14.817
  O     -102.381       0.745      16.077
  C     -103.200       2.000      14.101
  N     -104.320       2.791      14.611
  C     -104.231       4.176      14.525
  O     -103.259       4.773      14.066
  N     -105.303       4.873      15.019
  C     -106.397       4.338      15.635
  O     -107.320       5.011      16.075
  C     -106.413       2.872      15.740
  C     -105.398       2.180      15.224
  O     -105.186      -3.112      11.642
  O     -106.782      -2.395      13.574
  H     -104.940      -2.867      10.734
  H     -103.020       1.104      16.719
  H     -105.277       5.878      14.933
  H     -107.257       2.411      16.236
  H     -105.387       1.098      15.290
  H     -102.276       2.586      14.173
  H     -103.989       0.153      14.962
  H     -102.280      -1.192      13.897
  H     -101.975       0.552      11.731
  H     -104.295      -0.020      10.987
  H     -103.350      -1.445      11.441
  P      -99.760      -0.737      14.444
  C      -97.483      -0.009      13.380
  O      -98.347       0.013      14.492
  O      -99.593      -1.731      13.195
  O     -100.192      -1.439      15.689
  H      -99.450      -1.264      12.357
  H      -96.762       0.807      13.477
  H      -98.032       0.121      12.444
  H      -96.939      -0.957      13.356
  H     -108.363      -1.472       9.911
  H     -108.609      -2.237      11.462
  H     -107.533      -2.961      10.292

 3  4  5  6  7  8  9  10  11  12  13  24  28  29  30  31  32 0
 6-311+G(2d,p)
 ****
 33  34 0
 6-311+G(2d,p)
 ****
 1  2  14  15  16  17  18  19  20  21  22  23  25  26  27 0
 3-21G
 ****
 35  36  37  38  39  40  41  42  43  44  45 0
 3-21G
 ****


