%nproc=1
%NoSave
%Mem=1900MB
#P OB98/GEN NMR

erre ene a

0 1
  C     -113.785     422.169    -305.991
  O     -113.790     422.552    -307.369
  P     -114.918     423.543    -307.916
  C     -116.421     421.492    -308.369
  O     -116.346     422.810    -307.837
  C     -117.700     420.802    -307.865
  O     -118.880     421.571    -308.187
  C     -117.936     419.445    -308.508
  O     -117.041     418.401    -308.160
  C     -119.413     419.210    -308.241
  O     -119.643     418.684    -306.935
  C     -119.979     420.645    -308.353
  N     -120.682     420.882    -309.610
  C     -122.051     420.646    -309.604
  O     -122.662     420.218    -308.625
  N     -122.712     420.882    -310.787
  C     -122.128     421.295    -311.962
  O     -122.763     421.468    -312.991
  C     -120.666     421.514    -311.907
  C     -120.028     421.297    -310.762
  O     -114.623     424.228    -309.204
  O     -115.032     424.627    -306.721
  H     -119.520     417.712    -306.982
  H     -115.129     425.510    -307.129
  H     -123.707     420.725    -310.804
  H     -120.180     421.829    -312.821
  H     -118.954     421.453    -310.700
  H     -120.686     420.846    -307.529
  H     -119.849     418.499    -308.953
  H     -117.833     419.568    -309.601
  H     -117.643     420.717    -306.776
  H     -115.541     420.919    -308.071
  H     -116.409     421.539    -309.464
  P     -115.955     417.807    -309.175
  C     -117.408     415.885    -310.160
  O     -116.723     417.102    -310.389
  O     -114.797     417.073    -308.580
  O     -115.397     419.150    -309.869
  H     -114.457     419.017    -310.081
  H     -117.849     415.552    -311.089
  H     -118.195     416.031    -309.419
  H     -116.706     415.120    -309.801
  H     -112.964     421.507    -305.808
  H     -114.703     421.673    -305.755
  H     -113.684     423.041    -305.379

 3  4  5  6  7  8  9  10  11  12  13  23  28  29  30  31  32 0
 6-311+G(2d,p)
 ****
 33  34 0
 6-311+G(2d,p)
 ****
 1  2  14  15  16  17  18  19  20  21  22  24  25  26  27 0
 3-21G
 ****
 35  36  37  38  39  40  41  42  43  44  45 0
 3-21G
 ****


