%nproc=1
%NoSave
%Mem=1900MB
#P OB98/GEN NMR

erre ene a

0 1
  C      -73.678     105.448    -194.637
  O      -74.052     105.582    -196.004
  P      -74.979     104.432    -196.637
  C      -72.985     103.531    -198.035
  O      -73.977     103.251    -197.054
  C      -72.436     102.235    -198.627
  O      -71.778     101.461    -197.603
  C      -73.489     101.314    -199.223
  O      -73.854     101.698    -200.541
  C      -72.740      99.993    -199.244
  O      -71.845      99.957    -200.373
  C      -71.943     100.056    -197.936
  N      -73.049      95.482    -195.935
  C      -72.449      95.836    -197.091
  N      -72.197      97.079    -197.557
  C      -72.679      98.008    -196.713
  C      -73.348      97.795    -195.521
  C      -73.523      96.459    -195.125
  N      -74.113      96.101    -193.934
  N      -73.689      98.996    -194.938
  C      -73.227      99.919    -195.756
  N      -72.597      99.370    -196.841
  O      -75.419     105.058    -198.045
  O      -76.153     104.039    -195.806
  H      -71.582      99.024    -200.496
  H      -76.246     104.640    -198.352
  H      -72.113      95.015    -197.717
  H      -73.314     100.984    -195.600
  H      -70.939      99.630    -198.040
  H      -73.406      99.126    -199.338
  H      -74.364     101.229    -198.565
  H      -71.684     102.501    -199.383
  H      -72.167     104.085    -197.570
  H      -74.034      95.140    -193.639
  H      -74.280      96.827    -193.248
  H      -73.427     104.152    -198.824
  P      -75.416     101.956    -200.812
  C      -76.220     100.037    -202.368
  O      -76.053     100.504    -201.042
  O      -75.426     102.623    -202.268
  O      -76.078     102.817    -199.788
  H      -76.217     103.176    -202.384
  H      -76.363      98.954    -202.341
  H      -75.341     100.258    -202.979
  H      -77.107     100.497    -202.812
  H      -73.066     106.278    -194.352
  H      -73.130     104.539    -194.505
  H      -74.557     105.426    -194.027

 3  4  5  6  7  8  9  10  11  12  22  25  29  30  31  32 0
 6-311+G(2d,p)
 ****
 33  36  37 0
 6-311+G(2d,p)
 ****
 1  2  13  14  15  16  17  18  19  20  21  23  24  26 0
 3-21G
 ****
 27  28  34  35  38  39  40  41  42  43  44  45  46  47  48 0
 3-21G
 ****


