%nproc=1
%NoSave
%Mem=1900MB
#P OB98/GEN NMR

erre ene a

0 1
  C      131.719    -342.710     187.935
  O      131.977    -342.942     186.564
  H      132.516    -342.100     188.365
  H      130.772    -342.173     188.029
  H      131.644    -343.658     188.473
  P      133.342    -343.710     186.215
  C      133.746    -341.812     184.505
  O      133.797    -343.208     184.757
  C      133.382    -341.558     183.041
  O      134.382    -342.203     182.208
  C      132.000    -342.097     182.634
  O      131.241    -341.084     181.959
  C      132.312    -343.208     181.649
  O      131.340    -343.321     180.614
  C      133.679    -342.806     181.114
  N      133.426    -346.749     177.886
  C      132.733    -345.591     177.936
  N      132.914    -344.542     178.761
  C      133.957    -344.753     179.583
  C      134.771    -345.872     179.634
  C      134.458    -346.916     178.745
  N      135.129    -348.121     178.732
  N      135.737    -345.734     180.615
  C      135.484    -344.570     181.176
  N      134.406    -343.948     180.596
  O      132.861    -345.218     185.965
  O      134.383    -343.637     187.280
  H      131.761    -343.794     179.873
  H      133.294    -345.800     186.618
  H      131.921    -345.497     177.222
  H      136.010    -344.152     182.026
  H      133.599    -342.059     180.312
  H      132.357    -344.164     182.190
  H      131.427    -342.473     183.491
  H      133.447    -340.482     182.844
  H      134.726    -341.368     184.710
  H      134.766    -348.853     178.148
  H      135.825    -348.293     179.447
  H      133.007    -341.353     185.167
  P      129.968    -340.503     182.752
  C      128.321    -340.467     180.744
  O      129.046    -339.706     181.701
  O      130.608    -339.348     183.663
  O      129.260    -341.522     183.583
  H      130.393    -339.512     184.604
  H      127.757    -339.808     180.117
  H      127.655    -341.135     181.250
  H      129.005    -341.031     180.145

 6  7  8  9  10  11  12  13  14  15  25  28  32  33  34  35 0
 6-311+G(2d,p)
 ****
 36  39  40 0
 6-311+G(2d,p)
 ****
 1  2  3  4  5  16  17  18  19  20  21  22  23  24 0
 3-21G
 ****
 26  27  29  30  31  37  38  41  42  43  44  45  46  47  48 0
 3-21G
 ****


