%nproc=1
%NoSave
%Mem=1900MB
#P OB98/GEN NMR

erre ene a

0 1
  C      565.695     154.144    1132.029
  O      564.337     153.773    1132.148
  H      565.928     154.285    1130.968
  H      566.336     153.363    1132.433
  H      565.873     155.084    1132.561
  P      563.819     153.410    1133.626
  C      561.683     152.887    1132.213
  O      562.469     152.579    1133.358
  C      560.292     152.270    1132.342
  O      559.616     152.791    1133.517
  C      559.355     152.570    1131.173
  O      559.615     151.766    1130.035
  C      558.021     152.222    1131.815
  O      557.885     150.791    1131.909
  C      558.191     152.857    1133.217
  N      557.715     154.239    1133.282
  C      556.599     154.481    1134.092
  O      556.055     153.561    1134.704
  N      556.092     155.759    1134.152
  C      556.664     156.717    1133.496
  N      556.112     157.954    1133.604
  C      557.853     156.514    1132.645
  C      558.321     155.266    1132.576
  O      563.268     154.809    1134.177
  O      564.806     152.732    1134.517
  H      557.035     150.627    1132.352
  H      562.784     154.664    1135.035
  H      558.290     157.348    1132.102
  H      559.191     155.043    1131.980
  H      557.683     152.261    1133.981
  H      557.158     152.585    1131.260
  H      559.361     153.626    1130.918
  H      560.412     151.201    1132.495
  H      555.259     158.045    1134.149
  H      562.197     152.476    1131.327
  H      556.396     158.733    1133.014
  H      561.598     153.968    1132.100
  P      559.598     152.500    1128.604
  C      561.085     150.693    1127.479
  O      559.831     151.376    1127.492
  O      560.977     153.328    1128.596
  O      558.418     153.397    1128.370
  H      560.877     154.176    1128.111
  H      561.092     149.976    1126.685
  H      561.228     150.192    1128.414
  H      561.874     151.399    1127.329

 6  7  8  9  10  11  12  13  14  15  16  26  30  31  32  33  35 0
 6-311+G(2d,p)
 ****
 37  38 0
 6-311+G(2d,p)
 ****
 1  2  3  4  5  17  18  19  20  21  22  23  24  25 0
 3-21G
 ****
 27  28  29  34  36  39  40  41  42  43  44  45  46 0
 3-21G
 ****


