%nproc=1
%NoSave
%Mem=1900MB
#P OB98/GEN NMR

erre ene a

0 1
  C      427.561     539.517    -269.918
  O      426.954     540.726    -269.498
  H      427.248     539.309    -270.944
  H      427.241     538.693    -269.275
  H      428.648     539.612    -269.891
  P      427.304     541.224    -268.013
  C      426.597     543.528    -268.993
  O      426.635     542.674    -267.854
  C      425.150     543.884    -269.317
  O      424.409     544.092    -268.092
  C      424.995     545.177    -270.107
  O      425.277     545.008    -271.483
  C      423.538     545.521    -269.824
  O      422.653     544.813    -270.697
  C      423.358     545.040    -268.378
  N      420.654     548.824    -266.265
  C      420.307     547.833    -267.125
  N      421.087     546.854    -267.629
  C      422.337     546.946    -267.142
  C      422.833     547.896    -266.261
  C      421.929     548.870    -265.813
  N      422.282     549.892    -264.961
  N      424.178     547.685    -266.025
  C      424.485     546.621    -266.740
  N      423.404     546.140    -267.429
  O      428.873     541.535    -268.098
  O      426.987     540.255    -266.927
  H      422.928     543.872    -270.662
  H      429.373     540.789    -267.717
  H      419.273     547.833    -267.448
  H      425.471     546.172    -266.803
  H      422.402     544.524    -268.229
  H      423.361     546.588    -269.958
  H      425.634     545.962    -269.676
  H      424.690     543.044    -269.854
  H      427.042     543.011    -269.849
  H      427.176     544.428    -268.779
  H      421.599     550.596    -264.737
  H      423.254     550.000    -264.710
  P      426.015     546.205    -272.247
  C      426.652     544.403    -274.022
  O      426.236     545.739    -273.764
  O      427.494     546.200    -271.627
  O      425.357     547.536    -272.101
  H      427.827     547.120    -271.561
  H      426.752     544.258    -275.077
  H      425.923     543.722    -273.636
  H      427.594     544.225    -273.547

 6  7  8  9  10  11  12  13  14  15  25  28  32  33  34  35 0
 6-311+G(2d,p)
 ****
 36  37  40 0
 6-311+G(2d,p)
 ****
 1  2  3  4  5  16  17  18  19  20  21  22  23  24 0
 3-21G
 ****
 26  27  29  30  31  38  39 41  42  43  44  45  46  47  48 0
 3-21G
 ****


