%nproc=1
%NoSave
%Mem=1900MB
#P OB98/GEN NMR

erre ene a

0 1
  C     -557.752    -136.526    -201.999
  O     -557.628    -136.070    -200.667
  H     -556.897    -136.191    -202.594
  H     -557.770    -137.620    -201.997
  H     -558.681    -136.156    -202.441
  P     -557.544    -134.481    -200.453
  C     -560.057    -134.039    -199.937
  O     -558.992    -133.926    -200.871
  C     -561.384    -134.059    -200.686
  O     -561.523    -132.863    -201.489
  C     -561.525    -135.227    -201.656
  O     -561.930    -136.420    -201.016
  C     -562.609    -134.697    -202.578
  O     -563.892    -134.808    -201.936
  C     -562.207    -133.223    -202.717
  N     -561.581    -133.770    -207.768
  C     -562.608    -134.085    -206.948
  N     -562.704    -133.886    -205.620
  C     -561.601    -133.289    -205.144
  C     -560.478    -132.907    -205.858
  C     -560.488    -133.173    -207.238
  N     -559.431    -132.885    -208.071
  N     -559.536    -132.342    -205.019
  C     -560.091    -132.371    -203.824
  N     -561.323    -132.964    -203.843
  O     -556.608    -133.983    -201.651
  O     -557.071    -134.027    -199.113
  H     -563.823    -134.351    -201.079
  H     -556.308    -133.070    -201.491
  H     -563.461    -134.558    -207.426
  H     -559.636    -131.989    -202.920
  H     -563.074    -132.557    -202.823
  H     -562.675    -135.254    -203.519
  H     -560.608    -135.378    -202.238
  H     -562.196    -134.061    -199.949
  H     -560.030    -133.180    -199.258
  H     -559.473    -133.249    -209.011
  H     -558.561    -132.579    -207.665
  H     -559.936    -134.959    -199.358
  P     -561.198    -137.785    -201.458
  C     -560.271    -138.255    -199.076
  O     -559.972    -137.989    -200.442
  O     -560.484    -137.379    -202.827
  O     -562.114    -138.954    -201.621
  H     -560.441    -138.139    -203.438
  H     -559.360    -138.366    -198.527
  H     -560.843    -139.157    -199.005
  H     -560.835    -137.442    -198.670

 6  7  8  9  10  11  12  13  14  15  25  28  32  33  34  35 0
 6-311+G(2d,p)
 ****
 36  39  40 0
 6-311+G(2d,p)
 ****
 1  2  3  4  5  16  17  18  19  20  21  22  23  24 0
 3-21G
 ****
 26  27  29  30  31  37  38  41  42  43  44  45  46  47 0
 3-21G
 ****
 48 0
 3-21G
 ****


