%nproc=1
%NoSave
%Mem=1900MB
#P OB98/GEN NMR

erre ene a

0 1
  C     -150.953    -136.436    -196.774
  O     -152.221    -137.055    -196.545
  P     -152.656    -137.304    -195.015
  C     -151.811    -139.774    -194.843
  O     -151.650    -138.421    -194.452
  C     -151.668    -140.714    -193.638
  O     -150.396    -140.454    -192.965
  C     -152.780    -140.582    -192.597
  O     -153.040    -141.907    -192.096
  C     -152.145    -139.726    -191.516
  O     -152.791    -139.888    -190.257
  C     -150.698    -140.233    -191.570
  N     -149.753    -139.311    -190.956
  C     -149.062    -139.764    -189.838
  O     -149.277    -140.860    -189.320
  N     -148.147    -138.898    -189.300
  C     -147.921    -137.614    -189.717
  O     -147.085    -136.879    -189.206
  C     -148.765    -137.147    -190.834
  C     -149.624    -138.002    -191.386
  O     -154.040    -138.077    -195.204
  O     -152.732    -136.043    -194.219
  H     -154.049    -138.683    -195.962
  H     -152.238    -139.480    -189.564
  H     -147.614    -139.220    -188.508
  H     -148.652    -136.122    -191.151
  H     -150.277    -137.685    -192.192
  H     -150.618    -141.204    -191.063
  H     -152.197    -138.672    -191.800
  H     -153.703    -140.160    -193.006
  H     -151.624    -141.743    -194.016
  H     -151.052    -140.036    -195.585
  H     -152.786    -139.895    -195.323
  P     -154.576    -142.368    -191.927
  C     -154.890    -142.149    -189.335
  O     -155.144    -141.634    -190.621
  O     -154.355    -143.879    -191.420
  O     -155.401    -142.288    -193.168
  H     -153.693    -143.949    -190.710
  H     -155.154    -141.391    -188.593
  H     -153.828    -142.405    -189.211
  H     -155.500    -143.038    -189.161
  H     -150.792    -136.332    -197.827
  H     -150.179    -137.043    -196.353
  H     -150.939    -135.470    -196.314

 3  4  5  6  7  8  9  10  11  12  13  24  28  29  30  31  32 0
 6-311+G(2d,p)
 ****
 33  34 0
 6-311+G(2d,p)
 ****
 1  2  14  15  16  17  18  19  20  21  22  23  25  26  27 0
 3-21G
 ****
 35  36  37  38  39  40  41  42  43  44  45 0
 3-21G
 ****


