%nproc=1
%NoSave
%Mem=1900MB
#P OB98/GEN NMR

erre ene a

0 1
  C      155.648     178.738      31.331
  O      156.365     178.512      32.533
  P      157.841     177.875      32.523
  C      159.153     179.878      33.501
  O      158.837     179.119      32.346
  C      160.665     179.881      33.738
  O      161.056     178.581      34.256
  C      161.503     180.148      32.479
  O      162.655     180.894      32.888
  C      161.898     178.755      32.036
  O      163.053     178.751      31.207
  C      162.082     178.060      33.390
  N      161.999     176.607      33.291
  C      163.062     175.936      32.688
  O      164.025     176.552      32.236
  N      163.013     174.566      32.609
  C      161.957     173.931      33.017
  N      161.983     172.572      32.971
  C      160.767     174.611      33.559
  C      160.866     175.931      33.686
  O      158.040     176.774      31.541
  O      158.099     177.455      34.041
  H      163.265     177.826      30.980
  H      157.739     176.560      34.260
  H      159.900     174.040      33.857
  H      160.052     176.512      34.096
  H      163.043     178.346      33.833
  H      161.078     178.304      31.469
  H      160.956     180.714      31.720
  H      160.891     180.623      34.513
  H      162.876     172.140      32.760
  H      158.663     179.417      34.362
  H      161.363     172.018      33.553
  H      158.771     180.899      33.389
  P      163.131     182.123      31.970
  C      162.496     183.941      33.706
  O      162.303     183.422      32.409
  O      162.449     181.755      30.562
  O      164.603     182.287      31.791
  H      162.962     182.167      29.843
  H      161.861     184.824      33.828
  H      163.538     184.242      33.848
  H      162.217     183.204      34.462
  H      154.694     179.165      31.560
  H      155.509     177.809      30.818
  H      156.200     179.410      30.708

 3  4  5  6  7  8  9  10  11  12  13  23  27  28  29  30  32 0
 6-311+G(2d,p)
 ****
 34  35 0
 6-311+G(2d,p)
 ****
 1  2  14  15  16  17  18  19  20  21  22  24  25  26 0
 3-21G
 ****
 31  33  36  37  38  39  40  41  42  43  44  45  46 0
 3-21G
 ****


