%nproc=1
%NoSave
%Mem=1900MB
#P OB98/GEN NMR

erre ene a

0 1
  C     -486.749     803.820    -242.464
  O     -487.269     804.837    -241.639
  H     -486.176     803.118    -241.845
  H     -486.075     804.251    -243.215
  H     -487.553     803.270    -242.962
  P     -488.180     805.949    -242.359
  C     -487.818     807.615    -244.336
  O     -487.332     806.476    -243.623
  C     -487.178     807.670    -245.717
  O     -485.777     808.022    -245.588
  C     -487.196     806.344    -246.461
  O     -488.465     806.092    -247.064
  C     -486.086     806.560    -247.487
  O     -486.546     807.282    -248.633
  C     -485.078     807.409    -246.704
  N     -480.032     807.443    -245.945
  C     -480.889     808.395    -246.386
  N     -482.231     808.306    -246.548
  C     -482.677     807.092    -246.183
  C     -481.923     806.018    -245.711
  C     -480.536     806.241    -245.600
  N     -479.659     805.256    -245.187
  N     -482.728     804.919    -245.485
  C     -483.942     805.323    -245.788
  N     -483.959     806.627    -246.215
  O     -488.129     807.180    -241.330
  O     -489.586     805.529    -242.663
  H     -487.362     806.842    -248.930
  H     -488.906     807.148    -240.740
  H     -480.444     809.347    -246.658
  H     -484.840     804.713    -245.739
  H     -484.671     808.227    -247.306
  H     -485.681     805.600    -247.838
  H     -486.924     805.513    -245.797
  H     -487.670     808.459    -246.294
  H     -487.551     808.520    -243.779
  H     -488.914     807.548    -244.414
  H     -478.680     805.476    -245.145
  H     -480.010     804.323    -245.027
  P     -489.195     804.702    -246.748
  C     -489.400     802.439    -248.038
  O     -488.628     803.612    -247.771
  O     -490.701     804.946    -247.254
  O     -489.160     804.280    -245.311
  H     -491.278     805.149    -246.506
  H     -488.879     801.821    -248.739
  H     -490.348     802.721    -248.447
  H     -489.552     801.897    -247.128

 6  7  8  9  10  11  12  13  14  15  25  28  32  33  34  35 0
 6-311+G(2d,p)
 ****
 36  37  40 0
 6-311+G(2d,p)
 ****
 1  2  3  4  5  16  17  18  19  20  21  22  23  24 0
 3-21G
 ****
 26  27  29  30  31  38  39 41  42  43  44  45  46  47  48 0
 3-21G
 ****


