%nproc=1
%NoSave
%Mem=1900MB
#P OB98/GEN NMR

erre ene a

0 1
  C     -290.171    -163.039     148.042
  O     -289.661    -161.863     147.441
  H     -289.502    -163.338     148.853
  H     -290.212    -163.844     147.304
  H     -291.168    -162.858     148.453
  P     -290.618    -161.132     146.384
  C     -292.203    -160.027     148.157
  O     -292.053    -160.949     147.087
  C     -293.683    -159.803     148.454
  O     -293.853    -158.960     149.610
  C     -294.433    -159.063     147.358
  O     -294.656    -159.862     146.216
  C     -295.713    -158.690     148.095
  O     -296.666    -159.758     148.078
  C     -295.199    -158.434     149.534
  N     -295.265    -157.031     149.889
  C     -296.475    -156.615     150.464
  O     -297.380    -157.428     150.653
  N     -296.635    -155.289     150.769
  C     -295.687    -154.445     150.501
  N     -295.923    -153.141     150.800
  C     -294.400    -154.841     149.895
  C     -294.258    -156.138     149.616
  O     -290.882    -162.283     145.305
  O     -290.066    -159.871     145.810
  H     -297.108    -159.719     147.205
  H     -291.149    -163.131     145.695
  H     -293.636    -154.102     149.705
  H     -293.345    -156.516     149.170
  H     -295.796    -159.002     150.261
  H     -296.200    -157.821     147.643
  H     -293.906    -158.137     147.098
  H     -294.141    -160.779     148.662
  H     -296.840    -152.905     151.162
  H     -291.715    -159.076     147.917
  H     -295.292    -152.388     150.564
  H     -291.697    -160.448     149.031
  P     -295.108    -159.214     144.823
  C     -292.598    -159.129     144.250
  O     -293.835    -158.423     144.245
  O     -296.362    -158.408     144.870
  O     -295.185    -160.480     143.844
  H     -294.350    -160.967     143.741
  H     -291.829    -158.505     143.845
  H     -292.690    -160.014     143.655
  H     -292.346    -159.399     145.254

 6  7  8  9  10  11  12  13  14  15  16  26  30  31  32  33  35 0
 6-311+G(2d,p)
 ****
 37  38 0
 6-311+G(2d,p)
 ****
 1  2  3  4  5  17  18  19  20  21  22  23  24  25 0
 3-21G
 ****
 27  28  29  34  36  39  40  41  42  43  44  45  46 0
 3-21G
 ****


