%nproc=1
%NoSave
%Mem=1900MB
#P OB98/GEN NMR

erre ene a

0 1
  C      348.678     -75.052     198.845
  O      348.111     -73.824     198.435
  H      348.671     -75.117     199.936
  H      348.073     -75.866     198.440
  H      349.700     -75.150     198.469
  P      348.944     -72.494     198.778
  C      347.373     -71.651     200.670
  O      348.646     -72.180     200.325
  C      347.298     -71.378     202.175
  O      348.272     -70.357     202.515
  C      345.922     -70.885     202.636
  O      345.624     -71.465     203.911
  C      346.117     -69.384     202.785
  O      345.199     -68.806     203.703
  C      347.578     -69.310     203.224
  N      347.540     -64.351     204.444
  C      346.916     -65.422     204.985
  N      346.983     -66.714     204.600
  C      347.840     -66.858     203.575
  C      348.548     -65.864     202.917
  C      348.364     -64.553     203.385
  N      348.968     -63.454     202.817
  N      349.293     -66.402     201.884
  C      349.037     -67.697     201.923
  N      348.164     -68.018     202.923
  O      348.121     -71.361     197.998
  O      350.382     -72.511     198.385
  H      345.414     -67.855     203.793
  H      348.361     -71.380     197.052
  H      346.269     -65.209     205.834
  H      349.453     -68.437     201.249
  H      347.700     -69.480     204.301
  H      345.977     -68.897     201.811
  H      345.123     -71.127     201.933
  H      347.592     -72.288     202.711
  H      346.600     -72.373     200.390
  H      348.736     -62.544     203.181
  H      349.536     -63.578     201.993
  H      347.206     -70.720     200.117
  P      344.728     -72.798     203.905
  C      342.321     -72.004     204.458
  O      343.239     -72.409     203.452
  O      344.576     -73.145     205.460
  O      345.348     -73.927     203.152
  H      344.797     -74.083     205.617
  H      341.376     -71.778     204.009
  H      342.697     -71.134     204.955
  H      342.198     -72.795     205.168

 6  7  8  9  10  11  12  13  14  15  25  28  32  33  34  35 0
 6-311+G(2d,p)
 ****
 36  39  40 0
 6-311+G(2d,p)
 ****
 1  2  3  4  5  16  17  18  19  20  21  22  23  24 0
 3-21G
 ****
 26  27  29  30  31  37  38  41  42  43  44  45  46  47 0
 3-21G
 ****
 48 0
 3-21G
 ****


