%nproc=1
%NoSave
%Mem=1900MB
#P OB98/GEN NMR

erre ene a

0 1
  C      522.851     902.389     379.944
  O      522.006     903.488     380.196
  P      522.297     904.921     379.499
  C      519.740     905.163     379.750
  O      521.016     905.831     379.847
  C      518.649     906.194     379.391
  O      519.142     907.050     378.348
  C      517.324     905.615     378.897
  O      516.427     905.185     379.927
  C      516.755     906.837     378.172
  O      516.186     907.742     379.159
  C      517.991     907.455     377.549
  N      518.014     908.943     372.658
  C      517.795     909.623     373.796
  N      517.801     909.163     375.069
  C      518.074     907.825     375.093
  C      518.326     907.018     373.989
  C      518.269     907.615     372.732
  N      518.497     906.919     371.534
  N      518.580     905.726     374.395
  C      518.483     905.754     375.710
  N      518.193     907.026     376.166
  O      522.668     904.856     378.041
  O      523.442     905.575     380.421
  H      515.898     908.527     378.669
  H      523.886     906.295     379.929
  H      517.604     910.709     373.709
  H      518.622     904.892     376.381
  H      517.979     908.563     377.552
  H      515.963     906.565     377.476
  H      517.518     904.816     378.168
  H      518.503     906.812     380.313
  H      519.518     904.701     380.715
  H      518.583     907.484     370.694
  H      518.881     905.987     371.598
  H      519.808     904.386     378.976
  P      515.999     903.622     379.899
  C      515.886     903.591     382.516
  O      515.253     903.372     381.289
  O      517.088     902.658     379.575
  O      514.803     903.642     378.819
  H      513.993     904.122     379.068
  H      515.144     903.514     383.356
  H      516.354     904.564     382.548
  H      516.661     902.806     382.670
  H      522.501     901.537     380.489
  H      523.847     902.626     380.255
  H      522.847     902.169     378.897

 3  4  5  6  7  8  9  10  11  12  22  25  29  30  31  32 0
 6-311+G(2d,p)
 ****
 33  36  37 0
 6-311+G(2d,p)
 ****
 1  2  13  14  15  16  17  18  19  20  21  23  24  26 0
 3-21G
 ****
 27  28  34  35  38  39  40  41  42  43  44  45  46  47  48 0
 3-21G
 ****


