%nproc=1
%NoSave
%Mem=1900MB
#P OB98/GEN NMR

erre ene a

0 1
  C     -357.843     846.894    -586.819
  O     -358.612     847.861    -586.133
  P     -360.096     847.522    -585.594
  C     -361.144     849.195    -587.280
  O     -360.966     848.833    -585.920
  C     -360.818     850.682    -587.484
  O     -361.860     851.468    -586.831
  C     -359.469     851.137    -586.915
  O     -358.948     852.142    -587.787
  C     -359.856     851.720    -585.567
  O     -358.873     852.624    -585.084
  C     -361.201     852.367    -585.904
  N     -362.026     852.596    -584.715
  C     -362.332     853.913    -584.384
  O     -361.894     854.847    -585.058
  N     -363.117     854.154    -583.302
  C     -363.522     853.158    -582.555
  N     -364.364     853.446    -581.517
  C     -363.137     851.755    -582.807
  C     -362.412     851.556    -583.921
  O     -360.156     847.055    -584.182
  O     -360.662     846.477    -586.667
  H     -359.120     852.889    -584.176
  H     -360.413     845.542    -586.472
  H     -363.465     850.968    -582.135
  H     -362.116     850.548    -584.191
  H     -361.044     853.312    -586.455
  H     -359.979     850.912    -584.830
  H     -358.754     850.305    -586.846
  H     -360.881     850.908    -588.565
  H     -364.743     854.379    -581.484
  H     -362.182     849.008    -587.565
  H     -364.951     852.718    -581.098
  H     -360.511     848.564    -587.927
  P     -357.371     852.136    -588.119
  C     -356.975     854.441    -587.017
  O     -356.872     853.667    -588.169
  O     -357.392     851.715    -589.681
  O     -356.535     851.175    -587.358
  H     -356.543     851.306    -589.906
  H     -356.600     855.433    -587.236
  H     -356.394     854.023    -586.201
  H     -358.024     854.529    -586.709
  H     -356.898     847.316    -587.089
  H     -358.362     846.587    -587.703
  H     -357.687     846.047    -586.185

 3  4  5  6  7  8  9  10  11  12  13  23  27  28  29  30  32 0
 6-311+G(2d,p)
 ****
 34  35 0
 6-311+G(2d,p)
 ****
 1  2  14  15  16  17  18  19  20  21  22  24  25  26 0
 3-21G
 ****
 31  33  36  37  38  39  40  41  42  43  44  45  46 0
 3-21G
 ****


