%nproc=1
%NoSave
%Mem=1900MB
#P OB98/GEN NMR

erre ene a

0 1
  C      173.282    -332.805     204.328
  O      173.916    -331.558     204.075
  P      174.615    -330.806     205.306
  C      173.204    -328.627     205.038
  O      174.488    -329.232     205.023
  C      173.036    -327.696     203.835
  O      171.723    -327.066     203.921
  C      174.072    -326.567     203.741
  O      174.280    -326.305     202.348
  C      173.358    -325.387     204.385
  O      173.908    -324.132     203.992
  C      171.928    -325.637     203.909
  N      168.613    -321.826     204.308
  C      169.516    -322.114     203.294
  N      169.480    -321.297     202.211
  N      170.367    -323.106     203.340
  C      170.271    -323.841     204.478
  C      169.449    -323.634     205.564
  C      168.483    -322.558     205.487
  O      167.613    -322.322     206.316
  N      169.700    -324.537     206.562
  C      170.612    -325.333     206.054
  N      170.957    -324.981     204.773
  O      176.167    -331.111     205.078
  O      174.145    -331.215     206.672
  H      174.877    -324.167     204.153
  H      176.451    -331.899     205.584
  H      167.966    -321.062     204.204
  H      171.064    -326.182     206.554
  H      171.759    -325.272     202.882
  H      173.424    -325.461     205.475
  H      168.828    -320.540     202.099
  H      175.015    -326.805     204.233
  H      170.113    -321.508     201.441
  H      173.044    -328.300     202.924
  H      173.106    -328.035     205.954
  H      172.429    -329.407     205.041
  P      175.760    -326.520     201.757
  C      175.611    -324.526     200.111
  O      175.779    -325.923     200.277
  O      175.810    -328.109     201.514
  O      176.868    -326.079     202.666
  H      176.721    -328.434     201.647
  H      176.035    -324.230     199.147
  H      176.107    -323.958     200.905
  H      174.538    -324.285     200.111
  H      172.864    -333.184     203.419
  H      172.503    -332.669     205.049
  H      174.002    -333.501     204.706

 3  4  5  6  7  8  9  10  11  12  23  26  30  31 0
 6-311+G(2d,p)
 ****
 33  35  36  37  38 0
 6-311+G(2d,p)
 ****
 1  2  13  14  15  16  17  18  19  20  21  22  24  25 0
 3-21G
 ****
 27  28  29  32  34  39  40  41  42  43  44  45  46  47  48  49 0
 3-21G
 ****


