%nproc=1
%NoSave
%Mem=1900MB
#P OB98/GEN NMR

erre ene a

0 1
  C      482.497     -12.689     853.497
  O      481.569     -11.617     853.614
  P      481.111     -10.847     852.275
  C      478.576     -11.322     852.150
  O      479.868     -11.649     851.645
  C      477.491     -12.041     851.341
  O      477.414     -11.545     849.994
  C      477.721     -13.530     851.207
  O      477.429     -14.205     852.424
  C      476.804     -13.876     850.036
  O      475.441     -14.039     850.484
  C      476.916     -12.606     849.163
  N      477.754     -12.806     847.983
  C      477.191     -13.569     846.956
  O      476.072     -14.066     847.085
  N      477.924     -13.758     845.804
  C      479.105     -13.242     845.699
  N      479.785     -13.462     844.542
  C      479.740     -12.440     846.770
  C      479.009     -12.267     847.869
  O      482.200     -10.503     851.321
  O      480.404      -9.528     852.856
  H      474.940     -14.328     849.696
  H      480.516      -8.806     852.205
  H      480.720     -12.020     846.639
  H      479.400     -11.699     848.707
  H      475.920     -12.295     848.812
  H      477.100     -14.806     849.554
  H      478.764     -13.722     850.921
  H      476.529     -11.855     851.839
  H      479.333     -14.025     843.831
  H      478.433     -10.245     852.103
  H      480.689     -13.053     844.343
  H      478.538     -11.607     853.204
  P      478.411     -15.395     852.869
  C      478.228     -14.504     855.295
  O      479.073     -14.988     854.261
  O      479.620     -15.268     851.824
  O      477.802     -16.754     852.819
  H      479.980     -16.153     851.628
  H      478.774     -14.573     856.252
  H      477.311     -15.093     855.369
  H      477.978     -13.457     855.110
  H      482.699     -13.094     854.467
  H      483.407     -12.328     853.065
  H      482.083     -13.452     852.871

 3  4  5  6  7  8  9  10  11  12  13  23  27  28  29  30  32 0
 6-311+G(2d,p)
 ****
 34  35 0
 6-311+G(2d,p)
 ****
 1  2  14  15  16  17  18  19  20  21  22  24  25  26 0
 3-21G
 ****
 31  33  36  37  38  39  40  41  42  43  44  45  46 0
 3-21G
 ****


