%nproc=1
%NoSave
%Mem=1900MB
#P OB98/GEN NMR

erre ene a

0 1
  C      -56.655      99.346      44.584
  O      -57.328     100.177      43.659
  H      -55.955      99.956      45.160
  H      -56.093      98.571      44.054
  H      -57.371      98.885      45.268
  P      -58.361      99.448      42.671
  C      -60.416      99.717      44.227
  O      -59.509      98.821      43.601
  C      -61.457      98.946      45.033
  O      -62.357      99.853      45.706
  C      -62.322      98.003      44.205
  O      -61.667      96.764      43.997
  C      -63.553      97.876      45.091
  O      -63.324      96.934      46.161
  C      -63.700      99.300      45.643
  N      -68.491     100.479      44.575
  C      -67.976      99.473      45.368
  N      -68.869      98.636      45.942
  N      -66.699      99.291      45.573
  C      -65.920     100.164      44.891
  C      -66.308     101.201      44.074
  C      -67.728     101.423      43.900
  O      -68.246     102.345      43.279
  N      -65.222     101.875      43.578
  C      -64.182     101.226      44.066
  N      -64.555     100.176      44.865
  O      -57.551      98.160      42.168
  O      -58.835     100.269      41.520
  H      -62.840      96.166      45.811
  H      -57.764      98.003      41.229
  H      -69.484     100.589      44.479
  H      -63.148     101.481      43.880
  H      -64.098      99.303      46.664
  H      -64.413      97.504      44.533
  H      -69.814      98.544      45.597
  H      -62.608      98.465      43.252
  H      -68.486      97.857      46.461
  H      -60.922      98.390      45.814
  H      -60.919     100.307      43.454
  H      -59.861     100.390      44.887
  P      -62.375      95.682      43.052
  C      -61.045      96.297      40.909
  O      -62.314      96.227      41.543
  O      -63.922      95.826      43.441
  O      -61.904      94.281      43.247
  H      -64.197      95.069      43.990
  H      -61.163      96.676      39.915
  H      -60.612      95.319      40.869
  H      -60.404      96.948      41.465

 6  7  8  9  10  11  12  13  14  15  26  29  33  34 0
 6-311+G(2d,p)
 ****
 36  38  39  40  41 0
 6-311+G(2d,p)
 ****
 1  2  3  4  5  16  17  18  19  20  21  22  23  24  25 0
 3-21G
 ****
 27  28  30  31  32  35  37  42  43  44  45  46  47 0
 3-21G
 ****
 48  49 0
 3-21G
 ****


