%nproc=1
%NoSave
%Mem=1900MB
#P OB98/GEN NMR

erre ene a

0 1
  C     -174.352     -11.666      -4.577
  O     -175.390     -12.619      -4.482
  H     -174.339     -11.262      -5.591
  H     -173.390     -12.147      -4.381
  H     -174.505     -10.842      -3.876
  P     -175.820     -13.154      -3.035
  C     -176.837     -11.084      -1.883
  O     -177.096     -12.288      -2.591
  C     -177.446     -11.138      -0.478
  O     -176.866     -10.070       0.326
  C     -178.971     -10.955      -0.451
  O     -179.472     -11.703       0.665
  C     -179.099      -9.468      -0.189
  O     -180.390      -9.132       0.268
  C     -177.953      -9.253       0.802
  N     -177.573      -7.846       0.921
  C     -176.706      -7.522       1.955
  O     -176.287      -8.347       2.768
  N     -176.363      -6.203       2.063
  C     -176.845      -5.189       1.288
  O     -176.528      -4.018       1.449
  C     -177.795      -5.585       0.236
  C     -178.108      -6.875       0.099
  O     -174.730     -13.223      -2.019
  O     -176.460     -14.593      -3.321
  H     -180.521      -8.161       0.230
  H     -176.320     -15.181      -2.554
  H     -175.726      -5.953       2.802
  H     -178.203      -4.803      -0.390
  H     -178.804      -7.198      -0.667
  H     -178.232      -9.613       1.801
  H     -178.921      -8.898      -1.107
  H     -179.458     -11.273      -1.375
  H     -177.153     -12.083      -0.005
  H     -177.281     -10.258      -2.448
  H     -175.757     -10.927      -1.813
  P     -180.120     -13.160       0.493
  C     -178.082     -14.680       0.902
  O     -179.317     -14.194       1.420
  O     -180.271     -13.601      -0.926
  O     -181.550     -13.055       1.208
  H     -182.169     -13.687       0.798
  H     -177.642     -15.357       1.604
  H     -177.417     -13.858       0.735
  H     -178.259     -15.190      -0.022

 6  7  8  9  10  11  12  13  14  15  16  26  31  32  33  34  35 0
 6-311+G(2d,p)
 ****
 36  37 0
 6-311+G(2d,p)
 ****
 1  2  3  4  5  17  18  19  20  21  22  23  24  25 0
 3-21G
 ****
 27  28  29  30  38  39  40  41  42  43  44  45 0
 3-21G
 ****


