%nproc=1
%NoSave
%Mem=1900MB
#P OB98/GEN NMR

erre ene a

0 1
  C     -221.256    -124.899     746.249
  O     -219.962    -124.365     746.039
  H     -221.221    -125.978     746.113
  H     -221.947    -124.475     745.511
  H     -221.609    -124.678     747.260
  P     -219.712    -122.845     746.487
  C     -220.825    -121.844     744.363
  O     -220.853    -121.955     745.782
  C     -221.631    -120.625     743.910
  O     -220.906    -119.418     744.292
  C     -221.869    -120.565     742.397
  O     -223.187    -120.069     742.153
  C     -220.839    -119.554     741.913
  O     -221.224    -118.925     740.687
  C     -220.762    -118.617     743.103
  N     -218.724    -114.019     743.548
  C     -220.043    -114.432     743.670
  N     -220.955    -113.473     743.945
  N     -220.426    -115.672     743.540
  C     -219.403    -116.523     743.295
  C     -218.068    -116.251     743.151
  C     -217.659    -114.862     743.272
  O     -216.507    -114.433     743.148
  N     -217.345    -117.388     742.877
  C     -218.248    -118.355     742.865
  N     -219.513    -117.881     743.125
  O     -218.381    -122.449     745.691
  O     -219.555    -122.628     747.955
  H     -220.616    -118.168     740.547
  H     -217.660    -122.267     746.327
  H     -218.491    -113.042     743.650
  H     -218.037    -119.395     742.674
  H     -221.571    -117.867     743.099
  H     -219.876    -120.060     741.752
  H     -220.725    -112.504     744.116
  H     -221.751    -121.535     741.905
  H     -221.919    -113.756     744.080
  H     -222.581    -120.606     744.454
  H     -221.259    -122.752     743.928
  H     -219.786    -121.748     744.029
  P     -224.337    -121.156     741.884
  C     -224.178    -121.435     739.305
  O     -223.926    -122.014     740.582
  O     -225.569    -120.265     741.365
  O     -224.708    -121.959     743.092
  H     -226.259    -120.221     742.064
  H     -223.858    -122.109     738.538
  H     -223.639    -120.515     739.218
  H     -225.226    -121.246     739.199

 6  7  8  9  10  11  12  13  14  15  26  29  33  34 0
 6-311+G(2d,p)
 ****
 36  38  39  40  41 0
 6-311+G(2d,p)
 ****
 1  2  3  4  5  16  17  18  19  20  21  22  23  24  25 0
 3-21G
 ****
 27  28  30  31  32  35  37  42  43  44  45  46  47 0
 3-21G
 ****
 48  49 0
 3-21G
 ****


