%nproc=1
%NoSave
%Mem=1900MB
#P OB98/GEN NMR

erre ene a

0 1
  C     -682.260    -893.948    1307.558
  O     -682.096    -893.969    1306.156
  H     -682.343    -894.971    1307.913
  H     -683.162    -893.401    1307.828
  H     -681.388    -893.481    1308.030
  P     -682.019    -892.576    1305.356
  C     -684.352    -893.080    1304.359
  O     -683.011    -892.711    1304.094
  C     -685.079    -893.398    1303.054
  O     -684.762    -892.353    1302.108
  C     -684.649    -894.738    1302.426
  O     -685.733    -895.615    1302.156
  C     -683.745    -894.321    1301.285
  O     -683.659    -895.256    1300.230
  C     -684.316    -892.964    1300.890
  N     -683.324    -892.089    1300.219
  C     -683.629    -891.660    1298.917
  O     -684.652    -891.934    1298.304
  N     -682.687    -890.842    1298.319
  C     -681.507    -890.461    1298.890
  O     -680.697    -889.735    1298.306
  C     -681.232    -890.952    1300.240
  C     -682.140    -891.741    1300.834
  O     -680.635    -892.119    1305.036
  O     -682.771    -891.535    1306.302
  H     -684.560    -895.348    1299.839
  H     -682.128    -890.970    1306.754
  H     -682.917    -890.529    1297.400
  H     -680.292    -890.669    1300.696
  H     -681.984    -892.119    1301.827
  H     -685.158    -893.074    1300.205
  H     -682.715    -894.193    1301.665
  H     -684.048    -895.320    1303.167
  H     -686.152    -893.380    1303.221
  H     -684.834    -892.243    1304.870
  H     -684.359    -893.964    1305.020
  P     -686.309    -896.716    1303.152
  C     -686.634    -898.401    1301.125
  O     -687.146    -897.784    1302.306
  O     -686.930    -896.212    1304.398
  O     -684.994    -897.581    1303.571
  H     -685.153    -897.889    1304.485
  H     -687.364    -899.076    1300.730
  H     -685.741    -898.941    1301.363
  H     -686.413    -897.649    1300.397

 6  7  8  9  10  11  12  13  14  15  16  26  31  32  33  34  35 0
 6-311+G(2d,p)
 ****
 36  37 0
 6-311+G(2d,p)
 ****
 1  2  3  4  5  17  18  19  20  21  22  23  24  25 0
 3-21G
 ****
 27  28  29  30  38  39  40  41  42  43  44  45 0
 3-21G
 ****


