%nproc=1
%NoSave
%Mem=1900MB
#P OB98/GEN NMR

erre ene a

0 1
  C      706.133     324.468    -361.129
  O      707.419     325.042    -361.276
  H      705.891     324.418    -360.058
  H      706.134     323.451    -361.532
  H      705.375     325.065    -361.631
  P      707.906     325.479    -362.737
  C      709.697     323.630    -362.521
  O      709.430     324.978    -362.877
  C      711.137     323.248    -362.896
  O      711.199     323.057    -364.345
  C      712.189     324.320    -362.521
  O      713.406     323.619    -362.207
  C      712.310     325.070    -363.833
  O      713.445     325.905    -363.863
  C      712.276     323.900    -364.823
  N      712.059     324.312    -366.209
  C      713.174     324.745    -366.920
  O      714.309     324.780    -366.464
  N      712.926     325.156    -368.214
  C      711.700     325.172    -368.817
  O      711.539     325.533    -369.988
  C      710.564     324.732    -368.007
  C      710.796     324.318    -366.754
  O      707.679     326.902    -363.103
  O      707.114     324.478    -363.714
  H      706.321     324.937    -364.063
  H      713.472     326.403    -364.706
  H      713.717     325.485    -368.747
  H      709.580     324.746    -368.458
  H      709.977     323.988    -366.116
  H      713.198     323.313    -364.756
  H      711.437     325.725    -363.979
  H      711.888     324.933    -361.669
  H      711.376     322.280    -362.434
  H      708.992     322.983    -363.058
  H      709.546     323.510    -361.439
  P      714.456     324.125    -361.109
  C      716.203     324.799    -362.878
  O      715.943     324.040    -361.716
  O      714.317     323.434    -359.789
  O      714.190     325.693    -360.944
  H      714.322     325.946    -360.018
  H      717.220     324.656    -363.177
  H      716.034     325.835    -362.672
  H      715.552     324.481    -363.665

 6  7  8  9  10  11  12  13  14  15  16  27  31  32  33  34  35 0
 6-311+G(2d,p)
 ****
 36  37 0
 6-311+G(2d,p)
 ****
 1  2  3  4  5  17  18  19  20  21  22  23  24  25 0
 3-21G
 ****
 26  28  29  30  38  39  40  41  42  43  44  45 0
 3-21G
 ****


