%nproc=1
%NoSave
%Mem=1900MB
#P OB98/GEN NMR

erre ene a

0 1
  C     -170.005    -656.204     637.303
  O     -171.323    -656.329     636.741
  P     -172.070    -654.987     636.298
  C     -170.977    -655.286     633.952
  O     -171.340    -654.394     635.002
  C     -170.934    -654.545     632.615
  O     -172.196    -653.906     632.332
  C     -169.910    -653.425     632.591
  O     -168.603    -653.941     632.406
  C     -170.396    -652.565     631.431
  O     -169.811    -652.990     630.181
  C     -171.926    -652.817     631.428
  N     -172.685    -651.631     631.786
  C     -173.178    -650.873     630.721
  O     -172.940    -651.212     629.553
  N     -173.901    -649.738     631.005
  C     -174.098    -649.377     632.232
  N     -174.814    -648.248     632.445
  C     -173.564    -650.138     633.389
  C     -172.875    -651.243     633.093
  O     -171.667    -653.947     637.454
  O     -173.556    -655.123     636.182
  H     -168.865    -653.128     630.370
  H     -172.393    -653.314     637.607
  H     -173.740    -649.798     634.402
  H     -172.448    -651.861     633.879
  H     -172.259    -653.142     630.435
  H     -170.125    -651.516     631.554
  H     -169.968    -652.843     633.524
  H     -170.715    -655.269     631.818
  H     -175.157    -647.757     631.633
  H     -171.695    -656.113     633.893
  H     -175.005    -647.878     633.375
  H     -170.009    -655.741     634.186
  P     -167.413    -653.306     633.279
  C     -166.103    -655.505     633.496
  O     -166.861    -654.512     634.180
  O     -168.226    -652.437     634.364
  O     -166.401    -652.492     632.551
  H     -167.605    -651.908     634.902
  H     -165.621    -656.142     634.247
  H     -165.336    -655.035     632.864
  H     -166.768    -656.125     632.880
  H     -169.630    -657.175     637.552
  H     -170.050    -655.602     638.186
  H     -169.355    -655.743     636.589

 3  4  5  6  7  8  9  10  11  12  13  21  23  27  28  29  30  32 0
 6-311+G(2d,p)
 ****
 34  35 0
 6-311+G(2d,p)
 ****
 1  2  14  15  16  17  18  19  20  22  24  25  26 0
 3-21G
 ****
 31  33  36  37  38  39  40  41  42  43  44  45  46 0
 3-21G
 ****


