%nproc=1
%NoSave
%Mem=1900MB
#P OB98/GEN NMR

erre ene a

0 1
  C      199.187      60.500     197.927
  O      199.861      59.273     197.603
  P      199.943      58.678     196.118
  C      200.412      60.349     194.190
  O      200.959      59.596     195.269
  C      201.354      61.485     193.789
  O      201.642      62.329     194.935
  C      202.730      61.051     193.294
  O      202.684      60.498     191.991
  C      203.510      62.357     193.397
  O      203.314      63.179     192.233
  C      202.868      63.030     194.627
  N      203.753      63.071     195.778
  C      204.801      63.992     195.741
  O      204.993      64.674     194.729
  N      205.616      64.117     196.842
  C      205.459      63.312     197.845
  N      206.289      63.487     198.918
  C      204.458      62.229     197.874
  C      203.643      62.169     196.819
  O      198.614      58.489     195.461
  O      200.715      57.284     196.258
  H      200.460      56.688     195.531
  H      203.765      64.026     192.408
  H      204.391      61.555     198.716
  H      202.866      61.411     196.765
  H      202.559      64.054     194.381
  H      204.591      62.187     193.492
  H      203.152      60.318     193.997
  H      200.851      62.096     193.026
  H      206.958      64.248     198.872
  H      199.456      60.776     194.512
  H      206.237      62.933     199.761
  H      200.225      59.677     193.343
  P      202.311      58.939     191.870
  C      199.998      57.771     192.055
  O      200.753      58.841     191.506
  O      202.382      58.423     193.381
  O      203.221      58.153     190.984
  H      202.771      57.527     193.405
  H      198.955      58.093     192.130
  H      200.360      57.494     193.044
  H      200.051      56.911     191.384
  H      199.270      60.686     198.978
  H      198.154      60.421     197.659
  H      199.635      61.307     197.386

 3  4  5  6  7  8  9  10  11  12  13  24  27  28  29  30  32 0
 6-311+G(2d,p)
 ****
 34  35 0
 6-311+G(2d,p)
 ****
 1  2  14  15  16  17  18  19  20  21  22  23  25  26 0
 3-21G
 ****
 31  33  36  37  38  39  40  41  42  43  44  45  46 0
 3-21G
 ****


