%nproc=1
%NoSave
%Mem=1900MB
#P OB98/GEN NMR

erre ene a

0 1
  C     -153.239     413.829    -119.150
  O     -152.387     413.353    -120.194
  P     -153.118     412.803    -121.515
  C     -155.101     411.167    -121.872
  O     -153.947     411.489    -121.111
  C     -155.335     409.656    -121.891
  O     -154.286     408.950    -122.584
  C     -155.406     409.040    -120.502
  O     -156.688     409.257    -119.939
  C     -155.124     407.569    -120.804
  O     -156.325     406.879    -121.209
  C     -154.125     407.644    -121.965
  N     -150.280     404.341    -121.836
  C     -151.610     404.137    -122.153
  N     -151.962     402.884    -122.506
  N     -152.515     405.085    -122.123
  C     -152.021     406.289    -121.754
  C     -150.720     406.616    -121.447
  C     -149.729     405.560    -121.475
  O     -148.535     405.697    -121.232
  N     -150.593     407.958    -121.178
  C     -151.833     408.409    -121.200
  N     -152.733     407.452    -121.603
  O     -151.909     412.243    -122.403
  O     -153.896     413.853    -122.243
  H     -156.583     407.179    -122.095
  H     -151.776     412.820    -123.180
  H     -149.627     403.576    -121.871
  H     -152.131     409.417    -120.953
  H     -154.348     406.892    -122.734
  H     -154.753     407.038    -119.919
  H     -151.317     402.109    -122.554
  H     -154.613     409.452    -119.866
  H     -152.935     402.716    -122.744
  H     -156.276     409.473    -122.427
  H     -154.988     411.538    -122.896
  H     -155.963     411.689    -121.444
  P     -156.793     410.248    -118.680
  C     -155.703     410.388    -116.331
  O     -155.718     409.768    -117.598
  O     -158.201     409.858    -118.027
  O     -156.746     411.703    -119.033
  H     -158.688     410.674    -117.793
  H     -155.345     409.668    -115.588
  H     -156.701     410.733    -116.037
  H     -155.021     411.242    -116.353
  H     -152.642     414.167    -118.329
  H     -153.880     413.037    -118.823
  H     -153.833     414.640    -119.516

 3  4  5  6  7  8  9  10  11  12  23  26  30  31 0
 6-311+G(2d,p)
 ****
 33  35  36  37  38 0
 6-311+G(2d,p)
 ****
 1  2  13  14  15  16  17  18  19  20  21  22  24  25 0
 3-21G
 ****
 27  28  29  32  34  39  40  41  42  43  44  45  46  47  48  49 0
 3-21G
 ****


