%nproc=1
%NoSave
%Mem=1900MB
#P OB98/GEN NMR

erre ene a

0 1
  C     -161.864     312.860     466.647
  O     -162.662     313.364     465.593
  H     -161.934     311.766     466.643
  H     -162.214     313.231     467.612
  H     -160.819     313.143     466.494
  P     -162.867     314.950     465.471
  C     -165.032     315.097     466.865
  O     -163.641     315.414     466.799
  C     -165.662     315.693     468.124
  O     -167.105     315.526     468.044
  C     -165.180     315.035     469.423
  O     -165.071     316.047     470.432
  C     -166.305     314.076     469.754
  O     -166.340     313.765     471.131
  C     -167.539     314.831     469.227
  N     -168.641     313.913     468.943
  C     -169.638     313.818     469.922
  O     -169.573     314.510     470.942
  N     -170.657     312.917     469.756
  C     -170.649     312.127     468.728
  N     -171.662     311.223     468.640
  C     -169.595     312.161     467.687
  C     -168.629     313.068     467.859
  O     -163.467     315.442     464.193
  O     -161.392     315.537     465.690
  H     -167.133     313.219     471.321
  H     -160.937     315.625     464.833
  H     -169.630     311.472     466.851
  H     -167.816     313.160     467.148
  H     -167.876     315.581     469.955
  H     -166.172     313.143     469.195
  H     -164.220     314.514     469.313
  H     -165.465     316.772     468.133
  H     -172.344     311.216     469.387
  H     -165.126     314.004     466.888
  H     -171.737     310.523     467.905
  H     -165.538     315.478     465.974
  P     -163.636     316.504     470.977
  C     -163.805     315.564     473.349
  O     -163.135     315.461     472.091
  O     -163.547     317.944     471.385
  O     -162.644     316.215     469.740
  H     -161.906     316.852     469.763
  H     -163.409     314.835     474.025
  H     -164.852     315.390     473.211
  H     -163.656     316.544     473.753

 6  7  8  9  10  11  12  13  14  15  16  26  30  31  32  33  35 0
 6-311+G(2d,p)
 ****
 37  38 0
 6-311+G(2d,p)
 ****
 1  2  3  4  5  17  18  19  20  21  22  23  24  25 0
 3-21G
 ****
 27  28  29  34  36  39  40  41  42  43  44  45  46 0
 3-21G
 ****


