%nproc=1
%NoSave
%Mem=1900MB
#P OB98/GEN NMR

erre ene a

0 1
  C      349.668     -40.522     310.278
  O      350.897     -41.268     310.213
  P      351.168     -42.365     311.345
  C      351.960     -43.818     309.326
  O      351.376     -43.789     310.618
  C      352.452     -45.228     308.998
  O      353.664     -45.553     309.725
  C      351.472     -46.324     309.342
  O      350.466     -46.491     308.347
  C      352.384     -47.553     309.378
  O      352.629     -48.009     308.033
  C      353.658     -46.984     309.989
  N      355.187     -50.171     313.695
  C      355.192     -50.279     312.349
  N      354.745     -49.405     311.428
  C      354.281     -48.295     312.020
  C      354.216     -48.032     313.388
  C      354.707     -49.032     314.244
  N      354.703     -48.912     315.615
  N      353.670     -46.796     313.621
  C      353.417     -46.299     312.428
  N      353.759     -47.176     311.424
  O      349.743     -42.529     312.056
  O      352.237     -41.989     312.313
  H      352.983     -47.246     307.536
  H      349.867     -42.713     313.009
  H      355.598     -51.209     311.947
  H      352.980     -45.319     312.233
  H      354.556     -47.412     309.544
  H      351.933     -48.387     309.930
  H      351.016     -46.156     310.333
  H      352.680     -45.269     307.914
  H      352.788     -43.107     309.264
  H      355.096     -49.663     316.160
  H      354.366     -48.068     316.029
  H      351.217     -43.495     308.590
  P      348.934     -46.438     308.801
  C      348.452     -44.404     307.265
  O      348.454     -44.919     308.570
  O      349.033     -46.587     310.399
  O      348.078     -47.486     308.186
  H      348.240     -47.028     310.744
  H      347.836     -43.499     307.247
  H      348.040     -45.125     306.555
  H      349.465     -44.126     306.966
  H      349.627     -39.831     309.462
  H      349.625     -39.985     311.202
  H      348.839     -41.195     310.218

 3  4  5  6  7  8  9  10  11  12  22  25  29  30  31  32 0
 6-311+G(2d,p)
 ****
 33  36  37 0
 6-311+G(2d,p)
 ****
 1  2  13  14  15  16  17  18  19  20  21  23  24  26 0
 3-21G
 ****
 27  28  34  35  38  39  40  41  42  43  44  45  46  47  48 0
 3-21G
 ****


