%nproc=1
%NoSave
%Mem=1900MB
#P OB98/GEN NMR

erre ene a

0 1
  C      223.327     137.689      33.931
  O      223.639     138.787      34.766
  H      222.327     137.331      34.185
  H      224.044     136.881      34.095
  H      223.338     137.993      32.880
  P      224.995     139.583      34.431
  C      226.166     139.041      36.716
  O      225.600     140.011      35.853
  C      225.419     139.010      38.050
  O      225.652     140.261      38.742
  C      223.909     138.829      37.909
  O      223.445     138.007      38.981
  C      223.365     140.239      38.064
  O      222.005     140.240      38.496
  C      224.371     140.851      39.047
  N      224.421     142.308      38.956
  C      223.227     142.995      39.203
  O      222.197     142.372      39.460
  N      223.217     144.363      39.110
  C      224.288     144.990      38.732
  N      224.208     146.345      38.639
  C      225.554     144.303      38.409
  C      225.553     142.981      38.551
  O      224.426     140.952      33.829
  O      225.929     138.849      33.530
  H      221.787     141.146      38.812
  H      223.657     141.299      34.310
  H      226.416     144.869      38.085
  H      226.443     142.395      38.344
  H      224.116     140.578      40.080
  H      223.410     140.763      37.101
  H      223.611     138.389      36.957
  H      225.857     138.221      38.673
  H      223.316     146.777      38.849
  H      227.223     139.263      36.895
  H      224.961     146.927      38.305
  H      226.100     138.067      36.222
  P      223.130     136.461      38.704
  C      220.717     136.594      39.599
  O      221.987     135.973      39.718
  O      224.317     135.562      38.610
  O      222.344     136.503      37.302
  H      222.632     135.734      36.773
  H      220.049     136.183      40.327
  H      220.326     136.421      38.618
  H      220.818     137.647      39.762

 6  7  8  9  10  11  12  13  14  15  16  26  30  31  32  33  35 0
 6-311+G(2d,p)
 ****
 37  38 0
 6-311+G(2d,p)
 ****
 1  2  3  4  5  17  18  19  20  21  22  23  24  25 0
 3-21G
 ****
 27  28  29  34  36  39  40  41  42  43  44  45  46 0
 3-21G
 ****


