%nproc=1
%NoSave
%Mem=1900MB
#P OB98/GEN NMR

erre ene a

0 1
  C      419.368     757.871    -261.491
  O      419.395     757.967    -262.898
  H      418.933     758.785    -261.083
  H      420.392     757.768    -261.109
  H      418.768     757.017    -261.165
  P      419.551     756.634    -263.765
  C      421.578     757.086    -265.303
  O      420.158     757.025    -265.192
  C      422.044     757.129    -266.760
  O      421.877     755.829    -267.357
  C      421.214     758.116    -267.605
  O      421.688     759.441    -267.581
  C      421.346     757.519    -268.992
  O      422.516     758.002    -269.674
  C      421.474     756.005    -268.725
  N      419.187     752.079    -271.080
  C      420.489     752.559    -271.230
  N      421.238     751.915    -272.155
  N      420.967     753.556    -270.556
  C      420.060     754.154    -269.750
  C      418.752     753.783    -269.528
  C      418.248     752.622    -270.222
  O      417.115     752.157    -270.111
  N      418.130     754.652    -268.664
  C      419.030     755.592    -268.438
  N      420.249     755.281    -269.001
  O      418.037     756.242    -264.128
  O      420.234     755.489    -263.069
  H      422.565     757.558    -270.535
  H      417.947     755.270    -264.194
  H      418.883     751.282    -271.609
  H      418.867     756.480    -267.834
  H      422.263     755.555    -269.351
  H      420.491     757.781    -269.619
  H      420.890     751.192    -272.773
  H      420.166     758.083    -267.311
  H      422.129     752.349    -272.438
  H      423.111     757.365    -266.791
  H      421.965     756.190    -264.818
  H      421.967     757.953    -264.754
  P      420.827     760.621    -266.925
  C      420.793     762.051    -269.147
  O      421.074     761.959    -267.755
  O      421.576     760.894    -265.540
  O      419.383     760.317    -266.725
  H      421.133     760.451    -264.807
  H      421.033     763.034    -269.495
  H      419.754     761.857    -269.315
  H      421.381     761.331    -269.678

 6  7  8  9  10  11  12  13  14  15  26  29  33  34 0
 6-311+G(2d,p)
 ****
 36  38  39  40  41 0
 6-311+G(2d,p)
 ****
 1  2  3  4  5  16  17  18  19  20  21  22  23  24  25 0
 3-21G
 ****
 27  28  30  31  32  35  37  42  43  44  45  46  47 0
 3-21G
 ****
 48  49 0
 3-21G
 ****


