%nproc=1
%NoSave
%Mem=1900MB
#P OB98/GEN NMR

erre ene a

0 1
  C      492.271     818.188     -69.711
  O      491.616     818.378     -70.950
  H      493.329     818.444     -69.803
  H      491.811     818.845     -68.967
  H      492.164     817.153     -69.381
  P      492.167     817.508     -72.181
  C      490.310     815.801     -71.599
  O      491.675     815.995     -71.933
  C      490.071     814.347     -71.199
  O      490.396     813.502     -72.332
  C      490.921     813.882     -70.002
  O      490.098     813.244     -69.018
  C      491.857     812.844     -70.593
  O      492.151     811.782     -69.693
  C      491.091     812.363     -71.818
  N      493.361     808.073     -73.380
  C      492.273     808.277     -72.606
  N      491.661     809.439     -72.306
  C      492.268     810.468     -72.926
  C      493.371     810.414     -73.762
  C      493.941     809.145     -73.966
  N      495.084     808.946     -74.710
  N      493.712     811.677     -74.205
  C      492.856     812.490     -73.611
  N      491.976     811.798     -72.817
  O      493.745     817.443     -71.908
  O      491.865     818.074     -73.526
  H      491.303     811.446     -69.353
  H      494.209     817.861     -72.657
  H      491.838     807.383     -72.161
  H      492.860     813.567     -73.683
  H      490.343     811.601     -71.555
  H      492.797     813.330     -70.877
  H      491.477     814.700     -69.535
  H      489.006     814.212     -70.984
  H      489.682     816.036     -72.468
  H      495.488     808.023     -74.709
  H      495.578     809.752     -75.059
  H      490.043     816.474     -70.778
  P      489.522     814.193     -67.850
  C      487.070     814.413     -68.686
  O      488.316     815.062     -68.470
  O      490.696     815.257     -67.636
  O      489.202     813.468     -66.591
  H      490.983     815.252     -66.705
  H      486.371     815.111     -69.098
  H      486.695     814.041     -67.755
  H      487.205     813.599     -69.367

 6  7  8  9  10  11  12  13  14  15  25  28  32  33  34  35 0
 6-311+G(2d,p)
 ****
 36  39  40 0
 6-311+G(2d,p)
 ****
 1  2  3  4  5  16  17  18  19  20  21  22  23  24 0
 3-21G
 ****
 26  27  29  30  31  37  38  41  42  43  44  45  46  47  48 0
 3-21G
 ****


