%nproc=1
%NoSave
%Mem=1900MB
#P OB98/GEN NMR

erre ene a

0 1
  C     -126.759    -542.019    -899.070
  O     -127.536    -542.967    -898.370
  H     -126.381    -542.456    -900.000
  H     -127.390    -541.161    -899.320
  H     -125.924    -541.683    -898.450
  P     -126.815    -544.353    -898.010
  C     -125.743    -543.343    -895.880
  O     -126.583    -544.353    -896.420
  C     -125.870    -543.320    -894.350
  O     -127.190    -542.872    -893.970
  C     -125.693    -544.673    -893.670
  O     -124.322    -545.031    -893.560
  C     -126.314    -544.391    -892.320
  O     -125.366    -543.702    -891.480
  C     -127.479    -543.453    -892.670
  N     -131.375    -545.390    -889.940
  C     -130.224    -544.789    -889.570
  N     -129.231    -544.313    -890.350
  C     -129.516    -544.483    -891.650
  C     -130.648    -545.082    -892.170
  C     -131.604    -545.558    -891.270
  N     -132.765    -546.189    -891.660
  N     -130.604    -545.074    -893.560
  C     -129.463    -544.486    -893.850
  N     -128.768    -544.116    -892.730
  O     -125.337    -544.173    -898.600
  O     -127.473    -545.578    -898.560
  H     -124.608    -544.305    -891.370
  H     -125.026    -545.031    -898.950
  H     -130.084    -544.665    -888.500
  H     -129.106    -544.295    -894.860
  H     -127.552    -542.621    -891.960
  H     -126.615    -545.294    -891.790
  H     -126.273    -545.451    -894.190
  H     -125.144    -542.593    -893.970
  H     -126.042    -542.367    -896.270
  H     -133.493    -546.327    -890.980
  H     -132.935    -546.294    -892.660
  H     -124.709    -543.547    -896.170
  P     -123.979    -546.591    -893.360
  C     -123.851    -547.155    -895.900
  O     -123.148    -547.024    -894.670
  O     -125.398    -547.306    -893.580
  O     -123.377    -546.941    -892.040
  H     -125.417    -548.161    -893.110
  H     -123.169    -547.446    -896.671
  H     -124.300    -546.218    -896.156
  H     -124.613    -547.900    -895.798

 6  7  8  9  10  11  12  13  14  15  25  28  32  33  34  35 0
 6-311+G(2d,p)
 ****
 36  39  40 0
 6-311+G(2d,p)
 ****
 1  2  3  4  5  16  17  18  19  20  21  22  23  24 0
 3-21G
 ****
 26  27  29  30  31  37  38  41  42  43  44  45  46  47  48 0
 3-21G
 ****


