%nproc=1
%NoSave
%Mem=1900MB
#P OB98/GEN NMR

erre ene a

0 1
  C     -728.585     727.196    -175.403
  O     -729.137     727.387    -174.074
  P     -729.331     728.873    -173.573
  C     -727.254     729.038    -172.011
  O     -727.905     729.508    -173.189
  C     -726.623     730.202    -171.255
  O     -727.563     730.861    -170.381
  C     -725.460     729.791    -170.353
  O     -724.254     729.668    -171.103
  C     -725.362     730.984    -169.428
  O     -724.673     732.068    -170.076
  C     -726.842     731.367    -169.229
  N     -726.392     730.869    -164.133
  C     -725.620     731.488    -165.065
  N     -725.798     731.552    -166.394
  C     -726.921     730.902    -166.757
  C     -727.811     730.251    -165.926
  C     -727.507     730.216    -164.559
  N     -728.310     729.589    -163.631
  N     -728.838     729.686    -166.670
  C     -728.583     730.046    -167.918
  N     -727.429     730.772    -168.019
  O     -730.040     728.688    -172.146
  O     -730.176     729.723    -174.489
  H     -724.600     732.802    -169.414
  H     -730.681     729.420    -171.988
  H     -724.740     731.998    -164.666
  H     -729.204     729.814    -168.769
  H     -727.009     732.448    -169.175
  H     -724.822     730.764    -168.505
  H     -725.697     728.883    -169.790
  H     -726.284     730.947    -171.996
  H     -726.494     728.297    -172.283
  H     -728.047     729.640    -162.650
  H     -729.150     729.111    -163.929
  H     -727.980     728.526    -171.380
  P     -724.015     728.262    -171.867
  C     -722.919     727.142    -169.802
  O     -723.981     727.151    -170.722
  O     -722.485     728.379    -172.350
  O     -724.951     728.016    -173.002
  H     -722.354     727.877    -173.190
  H     -723.187     726.549    -168.927
  H     -722.671     728.159    -169.473
  H     -722.015     726.686    -170.283
  H     -728.509     726.149    -175.611
  H     -727.613     727.641    -175.453
  H     -729.226     727.657    -176.125

 3  4  5  6  7  8  9  10  11  12  22  25  29  30  31  32 0
 6-311+G(2d,p)
 ****
 33  36  37 0
 6-311+G(2d,p)
 ****
 1  2  13  14  15  16  17  18  19  20  21  23  24  26 0
 3-21G
 ****
 27  28  34  35  38  39  40  41  42  43  44  45  46  47  48 0
 3-21G
 ****


