%nproc=1
%NoSave
%Mem=1900MB
#P OB98/GEN NMR

erre ene a

0 1
  C       30.519    -197.615     200.436
  O       30.708    -198.545     199.368
  P       30.858    -197.905     197.899
  C       29.187    -199.400     196.596
  O       30.545    -199.067     196.833
  C       29.067    -200.722     195.818
  O       29.998    -200.739     194.694
  C       29.368    -201.963     196.674
  O       28.504    -203.012     196.204
  C       30.813    -202.257     196.310
  O       31.235    -203.563     196.670
  C       30.776    -201.955     194.811
  N       34.275    -204.122     191.795
  C       33.060    -204.538     192.213
  N       32.183    -203.903     193.029
  C       32.673    -202.709     193.398
  C       33.893    -202.149     193.053
  C       34.719    -202.908     192.206
  N       35.968    -202.505     191.789
  N       34.056    -200.908     193.662
  C       32.974    -200.766     194.408
  N       32.081    -201.788     194.224
  O       32.432    -197.661     197.755
  O       30.064    -196.654     197.713
  H       31.035    -203.726     197.613
  H       32.648    -196.726     197.933
  H       32.744    -205.519     191.860
  H       32.793    -199.957     195.105
  H       30.258    -202.738     194.248
  H       31.469    -201.549     196.831
  H       29.199    -201.817     197.742
  H       28.050    -200.789     195.407
  H       28.696    -198.607     196.024
  H       36.483    -203.123     191.184
  H       36.341    -201.609     192.087
  H       28.654    -199.461     197.552
  P       27.122    -203.275     196.967
  C       28.290    -205.487     197.547
  O       27.073    -204.870     197.166
  O       26.075    -203.088     195.760
  O       26.846    -202.421     198.159
  H       26.340    -203.601     194.984
  H       28.105    -206.548     197.730
  H       28.681    -205.028     198.463
  H       29.025    -205.392     196.735
  H       30.432    -198.147     201.361
  H       29.626    -197.051     200.264
  H       31.357    -196.951     200.484

 3  4  5  6  7  8  9  10  11  12  22  25  29  30  31  32 0
 6-311+G(2d,p)
 ****
 33  36  37 0
 6-311+G(2d,p)
 ****
 1  2  13  14  15  16  17  18  19  20  21  23  24  26 0
 3-21G
 ****
 27  28  34  35  38  39  40  41  42  43  44  45  46  47  48 0
 3-21G
 ****


