%nproc=1
%NoSave
%Mem=1900MB
#P OB98/GEN NMR

erre ene a

0 1
  C       47.318      81.265      -1.217
  O       46.955      81.802       0.041
  H       47.091      80.197      -1.219
  H       48.389      81.400      -1.391
  H       46.743      81.750      -2.011
  P       47.242      83.365       0.264
  C       49.214      83.154       1.927
  O       48.810      83.439       0.595
  C       49.146      81.653       2.197
  O       49.613      80.919       1.052
  C       49.991      81.188       3.376
  O       49.291      81.379       4.595
  C       50.151      79.710       3.053
  O       48.969      78.995       3.464
  C       50.257      79.706       1.519
  N       53.459      77.286      -1.682
  C       52.218      76.975      -1.251
  N       51.447      77.634      -0.358
  C       52.076      78.730       0.096
  C       53.344      79.172      -0.251
  C       54.048      78.401      -1.190
  N       55.315      78.720      -1.626
  N       53.661      80.334       0.423
  C       52.578      80.619       1.117
  N       51.606      79.661       0.983
  O       46.333      84.059       1.221
  O       47.182      83.904      -1.243
  H       48.968      78.989       4.440
  H       47.619      83.279      -1.847
  H       51.786      76.075      -1.677
  H       52.440      81.513       1.715
  H       49.719      78.859       1.077
  H       50.994      79.255       3.574
  H       50.978      81.663       3.382
  H       48.091      81.385       2.346
  H       48.573      83.687       2.640
  H       55.815      78.017      -2.145
  H       55.798      79.476      -1.161
  H       50.240      83.516       2.048
  P       50.068      81.430       5.998
  C       49.661      79.307       7.388
  O       50.412      79.901       6.336
  O       49.365      82.190       7.067
  O       51.497      82.047       5.634
  H       51.940      82.361       6.446
  H       49.975      78.293       7.522
  H       48.621      79.328       7.139
  H       49.822      79.853       8.294

 6  7  8  9  10  11  12  13  14  15  25  28  32  33  34  35 0
 6-311+G(2d,p)
 ****
 36  39  40 0
 6-311+G(2d,p)
 ****
 1  2  3  4  5  16  17  18  19  20  21  22  23  24 0
 3-21G
 ****
 26  27  29  30  31  37  38  41  42  43  44  45  46  47 0
 3-21G
 ****
 48 0
 3-21G
 ****


