%nproc=1
%NoSave
%Mem=1900MB
#P OB98/GEN NMR

erre ene a

0 1
  C      414.760     700.363     543.214
  O      415.221     699.015     543.194
  P      414.705     697.900     542.173
  C      415.228     697.664     539.611
  O      415.715     697.859     540.929
  C      415.865     696.461     538.892
  O      417.321     696.615     538.883
  C      415.580     695.164     539.661
  O      414.364     694.474     539.446
  C      416.818     694.308     539.432
  O      416.678     693.412     538.330
  C      417.914     695.333     539.146
  N      422.192     693.532     541.309
  C      421.495     693.053     540.218
  N      421.979     691.917     539.637
  N      420.431     693.618     539.724
  C      420.011     694.696     540.440
  C      420.609     695.251     541.554
  C      421.816     694.644     542.046
  O      422.488     695.031     543.007
  N      419.891     696.316     542.013
  C      418.851     696.399     541.214
  N      418.884     695.440     540.233
  O      413.253     697.945     541.853
  O      414.996     696.517     542.949
  H      416.360     693.920     537.569
  H      414.294     695.887     542.675
  H      423.037     693.062     541.622
  H      418.055     697.136     541.275
  H      418.477     695.067     538.245
  H      417.015     693.677     540.315
  H      422.718     691.370     540.040
  H      415.591     695.416     540.728
  H      421.345     691.457     538.988
  H      415.562     696.420     537.855
  H      415.422     698.588     539.065
  H      414.141     697.529     539.630
  P      413.034     694.623     540.342
  C      410.847     695.889     539.921
  O      412.264     695.948     539.879
  O      413.581     695.007     541.784
  O      412.181     693.383     540.413
  H      412.894     694.862     542.464
  H      410.449     696.716     539.299
  H      410.494     695.998     540.950
  H      410.482     694.937     539.515
  H      415.263     700.900     543.991
  H      413.706     700.377     543.396
  H      414.965     700.824     542.271

 3  4  5  6  7  8  9  10  11  12  23  26  30  31 0
 6-311+G(2d,p)
 ****
 33  35  36  37  38 0
 6-311+G(2d,p)
 ****
 1  2  13  14  15  16  17  18  19  20  21  22  24  25 0
 3-21G
 ****
 27  28  29  32  34  39  40  41  42  43  44  45  46  47  48  49 0
 3-21G
 ****


