%nproc=1
%NoSave
%Mem=1900MB
#P OB98/GEN NMR

erre ene a

0 1
  C       31.773      35.174     129.452
  O       33.085      35.223     128.920
  P       33.366      35.742     127.423
  C       33.138      33.282     126.654
  O       32.730      34.627     126.462
  C       32.321      32.345     125.760
  O       30.914      32.510     126.078
  C       32.490      32.604     124.255
  O       32.412      31.332     123.595
  C       31.278      33.453     123.920
  O       30.942      33.412     122.541
  C       30.226      32.840     124.852
  N       29.107      33.741     125.105
  C       27.823      33.276     124.818
  O       27.645      32.154     124.345
  N       26.753      34.099     125.072
  C       26.954      35.310     125.494
  N       25.860      36.067     125.789
  C       28.300      35.878     125.706
  C       29.315      35.039     125.516
  O       34.787      36.078     127.134
  O       32.352      36.962     127.231
  H       31.611      33.925     122.048
  H       32.709      37.820     127.572
  H       28.417      36.901     126.031
  H       30.335      35.358     125.671
  H       29.856      31.896     124.437
  H       31.481      34.497     124.186
  H       33.443      33.079     124.012
  H       32.595      31.311     126.003
  H       24.965      35.589     125.797
  H       32.962      33.013     127.699
  H       25.930      36.865     126.410
  H       34.209      33.189     126.450
  P       33.355      31.078     122.322
  C       31.381      31.347     120.660
  O       32.670      31.769     121.049
  O       33.095      29.519     122.034
  O       34.816      31.322     122.519
  H       33.872      29.145     121.572
  H       31.071      31.929     119.785
  H       30.660      31.521     121.464
  H       31.390      30.288     120.391
  H       31.808      34.801     130.454
  H       31.169      34.526     128.852
  H       31.351      36.157     129.452

 3  4  5  6  7  8  9  10  11  12  13  23  27  28  29  30  32 0
 6-311+G(2d,p)
 ****
 34  35 0
 6-311+G(2d,p)
 ****
 1  2  14  15  16  17  18  19  20  21  22  24  25  26 0
 3-21G
 ****
 31  33  36  37  38  39  40  41  42  43  44  45  46 0
 3-21G
 ****


