%nproc=1
%NoSave
%Mem=1900MB
#P OB98/GEN NMR

erre ene a

0 1
  C     -166.689      94.218    -431.466
  O     -166.032      93.094    -430.908
  P     -165.052      93.187    -429.651
  C     -165.038      90.628    -429.214
  O     -164.274      91.787    -429.514
  C     -164.618      89.399    -430.048
  O     -164.572      89.757    -431.442
  C     -163.192      88.973    -429.664
  O     -162.971      88.149    -428.533
  C     -162.567      88.469    -430.964
  O     -162.619      87.039    -431.074
  C     -163.442      89.113    -432.045
  N     -159.693      89.916    -435.386
  C     -160.293      88.722    -435.010
  N     -159.682      87.593    -435.452
  N     -161.367      88.649    -434.268
  C     -161.797      89.859    -433.832
  C     -161.307      91.102    -434.145
  C     -160.144      91.171    -435.001
  O     -159.535      92.201    -435.282
  N     -161.954      92.108    -433.456
  C     -162.824      91.459    -432.696
  N     -162.740      90.093    -432.867
  O     -165.603      93.826    -428.414
  O     -163.897      94.166    -430.215
  H     -162.080      86.669    -430.352
  H     -163.578      94.711    -429.470
  H     -158.820      89.909    -435.896
  H     -163.496      91.928    -432.000
  H     -163.838      88.352    -432.731
  H     -161.508      88.750    -431.023
  H     -158.777      87.612    -435.898
  H     -162.641      89.893    -429.430
  H     -159.991      86.710    -435.059
  H     -165.351      88.597    -429.963
  H     -166.084      90.869    -429.399
  H     -164.944      90.390    -428.157
  P     -161.753      88.245    -427.509
  C     -163.385      88.231    -425.541
  O     -162.223      87.645    -426.107
  O     -161.617      89.813    -427.210
  O     -160.451      87.703    -428.015
  H     -160.708      90.012    -426.886
  H     -163.446      87.972    -424.484
  H     -164.270      87.833    -426.047
  H     -163.361      89.322    -425.644
  H     -167.288      93.905    -432.296
  H     -165.961      94.928    -431.799
  H     -167.314      94.670    -430.725

 3  4  5  6  7  8  9  10  11  12  23  26  30  31 0
 6-311+G(2d,p)
 ****
 33  35  36  37  38 0
 6-311+G(2d,p)
 ****
 1  2  13  14  15  16  17  18  19  20  21  22  24  25 0
 3-21G
 ****
 27  28  29  32  34  39  40  41  42  43  44  45  46  47  48  49 0
 3-21G
 ****


