%nproc=1
%NoSave
%Mem=1900MB
#P OB98/GEN NMR

erre ene a

0 1
  C      529.232    -205.260    -174.851
  O      528.502    -204.749    -175.958
  P      528.828    -203.304    -176.555
  C      530.831    -203.880    -178.158
  O      529.480    -203.494    -177.999
  C      531.321    -203.439    -179.544
  O      530.789    -204.324    -180.554
  C      530.864    -202.018    -179.875
  O      531.879    -201.082    -179.537
  C      530.585    -202.105    -181.362
  O      531.806    -201.986    -182.122
  C      530.009    -203.533    -181.498
  N      528.581    -203.744    -181.185
  C      527.607    -203.187    -182.011
  O      527.863    -202.561    -183.045
  N      526.304    -203.383    -181.620
  C      525.900    -204.089    -180.520
  O      524.772    -204.050    -180.048
  C      526.948    -204.861    -179.845
  C      528.219    -204.646    -180.189
  O      530.052    -202.811    -175.661
  O      527.694    -202.326    -176.542
  H      532.330    -201.288    -181.710
  H      529.744    -202.201    -174.946
  H      525.599    -202.862    -182.142
  H      526.654    -205.551    -179.059
  H      529.020    -205.179    -179.671
  H      530.184    -203.949    -182.499
  H      529.941    -201.278    -181.686
  H      529.926    -201.784    -179.354
  H      532.417    -203.513    -179.569
  H      530.929    -204.963    -178.036
  H      531.448    -203.415    -177.373
  P      531.462    -199.641    -178.980
  C      531.788    -200.335    -176.529
  O      532.240    -199.493    -177.586
  O      529.987    -199.352    -178.940
  O      532.231    -198.632    -179.962
  H      531.622    -198.315    -180.665
  H      532.504    -200.271    -175.703
  H      531.729    -201.370    -176.873
  H      530.805    -199.996    -176.189
  H      528.867    -206.235    -174.602
  H      529.109    -204.608    -174.011
  H      530.269    -205.322    -175.106

 3  4  5  6  7  8  9  10  11  12  13  23  28  29  30  31  32 0
 6-311+G(2d,p)
 ****
 33  34 0
 6-311+G(2d,p)
 ****
 1  2  14  15  16  17  18  19  20  21  22  24  25  26  27 0
 3-21G
 ****
 35  36  37  38  39  40  41  42  43  44  45 0
 3-21G
 ****


