%nproc=1
%NoSave
%Mem=1900MB
#P OB98/GEN NMR

erre ene a

0 1
  C       78.540     106.068    -154.796
  O       78.369     107.417    -154.395
  P       78.404     108.540    -155.543
  C       79.563     110.853    -155.776
  O       79.531     109.597    -155.108
  C       80.937     111.514    -155.650
  O       81.119     111.962    -154.284
  C       82.106     110.597    -156.009
  O       83.095     111.387    -156.670
  C       82.644     110.165    -154.658
  O       84.015     109.781    -154.734
  C       82.368     111.419    -153.811
  N       82.314     111.118    -152.384
  C       82.979     112.001    -151.528
  O       83.638     112.931    -151.993
  N       82.923     111.779    -150.175
  C       82.347     110.708    -149.724
  N       82.316     110.534    -148.376
  C       81.742     109.688    -150.602
  C       81.742     109.966    -151.905
  O       77.039     109.336    -155.305
  O       78.514     108.006    -156.933
  H       84.060     108.894    -155.157
  H       76.683     109.676    -156.148
  H       81.307     108.795    -150.177
  H       81.300     109.286    -152.621
  H       83.145     112.176    -153.979
  H       82.066     109.313    -154.282
  H       81.811     109.762    -156.650
  H       80.945     112.407    -156.287
  H       82.751     111.240    -147.796
  H       78.822     111.516    -155.321
  H       81.890     109.730    -147.934
  H       79.296     110.712    -156.827
  P       83.991     110.673    -157.793
  C       86.257     109.518    -157.452
  O       84.929     109.653    -156.987
  O       85.028     111.840    -158.162
  O       83.310     110.149    -159.013
  H       85.602     111.548    -158.894
  H       86.817     108.908    -156.739
  H       86.736     110.496    -157.532
  H       86.261     109.015    -158.424
  H       78.495     105.432    -153.937
  H       79.491     105.956    -155.274
  H       77.763     105.798    -155.480

 3  4  5  6  7  8  9  10  11  12  13  21  23  27  28  29  30  32 0
 6-311+G(2d,p)
 ****
 34  35 0
 6-311+G(2d,p)
 ****
 1  2  14  15  16  17  18  19  20  22  24  25  26 0
 3-21G
 ****
 31  33  36  37  38  39  40  41  42  43  44  45  46 0
 3-21G
 ****


