%nproc=1
%NoSave
%Mem=1900MB
#P OB98/GEN NMR

erre ene a

0 1
  C      414.640     179.529     191.497
  O      414.436     180.753     190.818
  H      414.844     178.730     190.778
  H      415.503     179.634     192.160
  H      413.761     179.274     192.096
  P      413.233     180.800     189.759
  C      410.955     181.959     190.205
  O      412.363     182.112     190.096
  C      410.286     183.334     190.252
  O      410.619     183.960     191.517
  C      410.701     184.290     189.119
  O      409.549     184.710     188.375
  C      411.280     185.501     189.837
  O      410.904     186.740     189.240
  C      410.727     185.367     191.255
  N      411.024     189.087     194.723
  C      409.963     188.441     194.195
  N      409.954     187.389     193.357
  C      411.208     186.990     193.086
  C      412.386     187.533     193.563
  C      412.267     188.648     194.408
  N      413.352     189.347     194.899
  N      413.483     186.860     193.056
  C      412.973     185.949     192.248
  N      411.603     186.001     192.217
  O      412.287     179.593     190.222
  O      413.642     180.664     188.329
  H      409.930     186.758     189.218
  H      412.043     179.052     189.447
  H      408.986     188.824     194.483
  H      413.543     185.263     191.631
  H      409.729     185.809     191.352
  H      412.374     185.429     189.829
  H      411.439     183.844     188.440
  H      409.198     183.184     190.244
  H      410.713     181.414     191.125
  H      413.168     190.204     195.403
  H      414.272     189.092     194.577
  H      410.590     181.379     189.352
  P      409.614     184.522     186.779
  C      407.855     183.652     185.070
  O      408.103     184.406     186.251
  O      410.185     183.035     186.611
  O      410.468     185.532     186.084
  H      410.653     182.952     185.758
  H      406.808     183.669     184.849
  H      408.172     182.641     185.219
  H      408.399     184.079     184.253

 6  7  8  9  10  11  12  13  14  15  25  28  32  33  34  35 0
 6-311+G(2d,p)
 ****
 36  39  40 0
 6-311+G(2d,p)
 ****
 1  2  3  4  5  16  17  18  19  20  21  22  23  24 0
 3-21G
 ****
 26  27  29  30  31  37  38  41  42  43  44  45  46  47  48 0
 3-21G
 ****


