%nproc=1
%NoSave
%Mem=1900MB
#P OB98/GEN NMR

erre ene a

0 1
  C     -256.954     314.619     188.774
  O     -257.020     315.435     189.930
  H     -256.775     315.258     187.907
  H     -257.899     314.086     188.633
  H     -256.134     313.902     188.871
  P     -257.335     314.692     191.317
  C     -259.511     315.991     191.817
  O     -258.936     314.737     191.436
  C     -260.874     315.775     192.483
  O     -260.700     314.851     193.598
  C     -261.495     317.061     193.039
  O     -262.916     317.004     192.880
  C     -261.164     316.990     194.517
  O     -262.055     317.775     195.316
  C     -261.237     315.489     194.779
  N     -261.584     314.731     199.800
  C     -262.527     314.928     198.846
  N     -262.340     315.098     197.519
  C     -261.038     314.992     197.198
  C     -259.974     314.781     198.054
  C     -260.289     314.655     199.421
  N     -259.342     314.481     200.403
  N     -258.784     314.770     197.351
  C     -259.124     314.957     196.089
  N     -260.480     315.106     195.956
  O     -256.593     315.200     192.508
  O     -257.065     313.157     190.943
  H     -262.975     317.484     195.140
  H     -257.480     312.919     190.095
  H     -263.556     314.961     199.190
  H     -258.444     314.998     195.239
  H     -262.267     315.134     194.922
  H     -260.150     317.365     194.695
  H     -261.108     317.969     192.570
  H     -261.539     315.283     191.764
  H     -259.627     316.632     190.939
  H     -259.650     314.405     201.358
  H     -258.366     314.420     200.152
  H     -258.819     316.483     192.521
  P     -263.585     317.755     191.627
  C     -264.016     320.102     192.608
  O     -263.234     319.316     191.712
  O     -265.021     317.448     191.377
  O     -262.675     317.267     190.397
  H     -263.257     317.072     189.626
  H     -263.685     321.119     192.572
  H     -263.904     319.725     193.603
  H     -265.046     320.052     192.321

 6  7  8  9  10  11  12  13  14  15  25  28  32  33  34  35 0
 6-311+G(2d,p)
 ****
 36  39  40 0
 6-311+G(2d,p)
 ****
 1  2  3  4  5  16  17  18  19  20  21  22  23  24 0
 3-21G
 ****
 26  27  29  30  31  37  38  41  42  43  44  45  46  47 0
 3-21G
 ****
 48 0
 3-21G
 ****


