%nproc=1
%NoSave
%Mem=1900MB
#P OB98/GEN NMR

erre ene a

0 1
  C       34.420    -151.758      42.254
  O       33.527    -151.643      41.150
  P       32.198    -150.767      41.328
  C       30.383    -152.692      41.346
  O       31.056    -151.647      42.012
  C       28.939    -152.777      41.865
  O       28.931    -153.097      43.273
  C       28.160    -151.476      41.698
  O       27.555    -151.379      40.422
  C       27.164    -151.559      42.836
  O       26.084    -152.447      42.493
  C       28.035    -152.175      43.956
  N       28.844    -151.261      44.791
  C       28.211    -150.322      45.603
  O       26.993    -150.184      45.681
  N       29.034    -149.528      46.357
  C       30.380    -149.681      46.515
  O       31.058    -148.976      47.251
  C       30.979    -150.781      45.753
  C       30.204    -151.497      44.934
  O       31.678    -150.559      39.833
  O       32.409    -149.464      42.034
  H       25.413    -152.370      43.194
  H       31.711    -149.615      39.589
  H       28.598    -148.795      46.895
  H       32.036    -150.969      45.884
  H       30.639    -152.315      44.364
  H       27.419    -152.766      44.643
  H       26.708    -150.592      43.034
  H       28.813    -150.618      41.885
  H       28.427    -153.588      41.332
  H       30.892    -153.645      41.502
  H       30.387    -152.503      40.267
  P       27.985    -150.205      39.422
  C       25.853    -148.864      39.907
  O       27.266    -148.881      39.976
  O       27.797    -150.481      37.969
  O       29.523    -149.943      39.791
  H       30.117    -150.436      39.179
  H       25.486    -147.991      40.454
  H       25.436    -149.767      40.359
  H       25.534    -148.788      38.864
  H       35.252    -152.371      41.977
  H       33.909    -152.204      43.081
  H       34.770    -150.786      42.533

 3  4  5  6  7  8  9  10  11  12  13  23  28  29  30  31  32 0
 6-311+G(2d,p)
 ****
 33  34 0
 6-311+G(2d,p)
 ****
 1  2  14  15  16  17  18  19  20  21  22  24  25  26  27 0
 3-21G
 ****
 35  36  37  38  39  40  41  42  43  44  45 0
 3-21G
 ****


