%nproc=1
%NoSave
%Mem=1900MB
#P OB98/GEN NMR

erre ene a

0 1
  C       45.663    -340.531     -37.338
  O       46.389    -341.076     -36.253
  P       47.782    -340.427     -35.806
  C       49.404    -341.517     -37.475
  O       48.951    -341.476     -36.126
  C       50.929    -341.585     -37.527
  O       51.514    -340.340     -37.079
  C       51.531    -342.650     -36.623
  O       51.331    -343.955     -37.133
  C       52.983    -342.196     -36.568
  O       53.696    -342.621     -37.738
  C       52.829    -340.661     -36.562
  N       53.033    -340.088     -35.240
  C       54.346    -339.725     -34.922
  O       55.265    -339.967     -35.704
  N       54.581    -339.105     -33.720
  C       53.618    -338.975     -32.863
  N       53.897    -338.300     -31.716
  C       52.254    -339.492     -33.097
  C       52.028    -340.010     -34.302
  O       47.808    -339.863     -34.425
  O       48.038    -339.275     -36.891
  H       48.251    -338.445     -36.424
  H       53.199    -342.277     -38.507
  H       51.505    -339.419     -32.323
  H       51.051    -340.396     -34.571
  H       53.542    -340.205     -37.257
  H       53.515    -342.602     -35.701
  H       51.089    -342.578     -35.622
  H       51.227    -341.752     -38.570
  H       54.838    -337.944     -31.600
  H       49.058    -340.614     -37.988
  H       53.173    -337.868     -31.149
  H       48.963    -342.385     -37.976
  P       50.282    -344.887     -36.354
  C       51.676    -345.114     -34.184
  O       51.108    -345.764     -35.303
  O       49.831    -345.946     -37.466
  O       49.106    -344.159     -35.789
  H       48.887    -346.161     -37.352
  H       51.888    -345.860     -33.415
  H       50.996    -344.363     -33.770
  H       52.615    -344.636     -34.478
  H       44.766    -341.095     -37.486
  H       46.261    -340.574     -38.224
  H       45.414    -339.513     -37.125

 3  4  5  6  7  8  9  10  11  12  13  24  27  28  29  30  32 0
 6-311+G(2d,p)
 ****
 34  35 0
 6-311+G(2d,p)
 ****
 1  2  14  15  16  17  18  19  20  21  22  23  25  26 0
 3-21G
 ****
 31  33  36  37  38  39  40  41  42  43  44  45  46 0
 3-21G
 ****


