%nproc=1
%NoSave
%Mem=1900MB
#P OB98/GEN NMR

erre ene a

0 1
  C      -23.304    -147.217     -65.075
  O      -22.574    -146.474     -66.030
  H      -23.766    -148.070     -65.579
  H      -24.095    -146.597     -64.647
  H      -22.647    -147.588     -64.286
  P      -21.678    -145.242     -65.535
  C      -19.678    -145.967     -66.995
  O      -20.607    -144.936     -66.693
  C      -20.340    -147.066     -67.832
  O      -20.805    -146.484     -69.077
  C      -19.403    -148.226     -68.178
  O      -20.138    -149.448     -68.146
  C      -18.975    -147.919     -69.600
  O      -18.601    -149.094     -70.317
  C      -20.217    -147.230     -70.161
  N      -19.396    -147.025     -75.141
  C      -19.800    -148.080     -74.348
  N      -19.998    -149.263     -74.967
  N      -19.991    -147.985     -73.058
  C      -19.776    -146.737     -72.575
  C      -19.374    -145.613     -73.256
  C      -19.147    -145.737     -74.680
  O      -18.773    -144.842     -75.431
  N      -19.248    -144.538     -72.411
  C      -19.571    -145.014     -71.224
  N      -19.888    -146.346     -71.267
  O      -21.090    -145.399     -64.168
  O      -22.660    -143.984     -65.609
  H      -17.879    -149.522     -69.807
  H      -22.954    -143.716     -64.719
  H      -19.252    -147.156     -76.127
  H      -19.587    -144.443     -70.304
  H      -20.960    -147.945     -70.534
  H      -18.117    -147.237     -69.590
  H      -19.894    -149.402     -75.961
  H      -18.555    -148.290     -67.496
  H      -20.325    -150.046     -74.414
  H      -21.227    -147.424     -67.295
  H      -19.316    -146.390     -66.053
  H      -18.829    -145.539     -67.541
  P      -19.772    -150.549     -67.038
  C      -22.229    -151.190     -66.639
  O      -20.937    -151.655     -67.003
  O      -19.378    -150.008     -65.704
  O      -18.555    -151.344     -67.717
  H      -17.931    -151.620     -67.017
  H      -22.919    -152.008     -66.650
  H      -22.549    -150.444     -67.336
  H      -22.192    -150.767     -65.657

 6  7  8  9  10  11  12  13  14  15  26  29  33  34 0
 6-311+G(2d,p)
 ****
 36  38  39  40  41 0
 6-311+G(2d,p)
 ****
 1  2  3  4  5  16  17  18  19  20  21  22  23  24  25 0
 3-21G
 ****
 27  28  30  31  32  35  37  42  43  44  45  46  47 0
 3-21G
 ****
 48  49 0
 3-21G
 ****


