%nproc=1
%NoSave
%Mem=1900MB
#P OB98/GEN NMR

erre ene a

0 1
  C     -114.615    -161.596    -105.306
  O     -114.567    -162.940    -105.727
  H     -113.719    -161.084    -105.668
  H     -114.626    -161.554    -104.214
  H     -115.496    -161.082    -105.702
  P     -115.922    -163.790    -105.742
  C     -115.055    -164.949    -103.604
  O     -116.171    -164.361    -104.261
  C     -115.428    -165.475    -102.217
  O     -115.662    -164.365    -101.324
  C     -116.711    -166.311    -102.232
  O     -116.517    -167.683    -102.524
  C     -117.226    -166.120    -100.807
  O     -116.671    -167.103     -99.916
  C     -116.731    -164.718    -100.436
  N     -120.695    -162.495     -98.093
  C     -120.002    -163.634     -97.729
  N     -120.448    -164.273     -96.626
  N     -118.981    -164.099     -98.400
  C     -118.714    -163.411     -99.533
  C     -119.345    -162.281    -100.007
  C     -120.425    -161.729     -99.218
  O     -121.059    -160.714     -99.488
  N     -118.825    -161.882    -101.215
  C     -117.947    -162.818    -101.509
  N     -117.788    -163.721    -100.485
  O     -115.522    -165.114    -106.556
  O     -117.101    -163.116    -106.376
  H     -116.735    -166.754     -99.006
  H     -116.300    -165.445    -107.042
  H     -121.454    -162.168     -97.522
  H     -117.367    -162.866    -102.424
  H     -116.320    -164.697     -99.418
  H     -118.312    -166.236    -100.767
  H     -121.280    -164.007     -96.123
  H     -117.446    -165.880    -102.919
  H     -120.091    -165.210     -96.434
  H     -114.583    -166.043    -101.807
  H     -114.299    -164.167    -103.516
  H     -114.631    -165.750    -104.216
  P     -117.745    -168.617    -102.940
  C     -117.510    -170.192    -100.852
  O     -118.308    -169.324    -101.626
  O     -117.037    -169.814    -103.731
  O     -118.806    -167.956    -103.757
  H     -117.098    -169.675    -104.693
  H     -118.079    -170.554    -100.021
  H     -116.652    -169.663    -100.493
  H     -117.194    -171.018    -101.454

 6  7  8  9  10  11  12  13  14  15  26  29  33  34 0
 6-311+G(2d,p)
 ****
 36  38  39  40  41 0
 6-311+G(2d,p)
 ****
 1  2  3  4  5  16  17  18  19  20  21  22  23  24  25 0
 3-21G
 ****
 27  28  30  31  32  35  37  42  43  44  45  46  47 0
 3-21G
 ****
 48  49 0
 3-21G
 ****


