%nproc=1
%NoSave
%Mem=1900MB
#P OB98/GEN NMR

erre ene a

0 1
  C      500.332     328.811     139.841
  O      501.191     328.872     140.964
  H      499.454     328.203     140.074
  H      500.002     329.824     139.596
  H      500.859     328.391     138.980
  P      501.760     327.476     141.514
  C      503.759     326.727     142.988
  O      503.085     327.810     142.363
  C      505.212     327.115     143.270
  O      505.917     327.190     142.006
  C      505.389     328.456     144.002
  O      506.105     328.264     145.231
  C      506.254     329.288     143.065
  O      507.243     330.056     143.747
  C      506.885     328.242     142.146
  N      509.998     331.490     139.754
  C      510.118     330.839     140.928
  N      509.305     329.906     141.460
  C      508.283     329.645     140.631
  C      508.033     330.211     139.395
  C      508.938     331.194     138.959
  N      508.780     331.905     137.787
  N      506.875     329.699     138.837
  C      506.410     328.863     139.748
  N      507.214     328.813     140.857
  O      502.326     326.764     140.197
  O      500.759     326.618     142.219
  H      506.771     330.596     144.409
  H      502.010     325.841     140.161
  H      510.988     331.103     141.528
  H      505.480     328.309     139.677
  H      507.795     327.812     142.578
  H      505.610     329.974     142.502
  H      504.433     328.955     144.205
  H      505.674     326.302     143.849
  H      503.744     325.853     142.326
  H      509.416     332.672     137.615
  H      507.938     331.766     137.253
  H      503.239     326.469     143.915
  P      505.221     328.154     146.570
  C      505.673     327.485     149.044
  O      506.226     327.821     147.775
  O      504.420     326.781     146.364
  O      504.304     329.312     146.789
  H      503.583     326.807     146.863
  H      506.464     327.291     149.738
  H      505.062     326.612     148.947
  H      505.077     328.299     149.400

 6  7  8  9  10  11  12  13  14  15  25  28  32  33  34  35 0
 6-311+G(2d,p)
 ****
 36  39  40 0
 6-311+G(2d,p)
 ****
 1  2  3  4  5  16  17  18  19  20  21  22  23  24 0
 3-21G
 ****
 26  27  29  30  31  37  38  41  42  43  44  45  46  47  48 0
 3-21G
 ****


