%nproc=1
%NoSave
%Mem=1900MB
#P OB98/GEN NMR

erre ene a

0 1
  C     -613.412     120.157    -616.852
  O     -614.131     120.303    -615.644
  P     -613.391     120.379    -614.219
  C     -614.833     118.355    -613.579
  O     -614.361     119.636    -613.183
  C     -615.938     117.856    -612.651
  O     -615.390     117.596    -611.328
  C     -617.116     118.832    -612.476
  O     -618.287     118.035    -612.305
  C     -616.766     119.525    -611.169
  O     -617.894     120.164    -610.565
  C     -616.147     118.374    -610.376
  N     -615.325     118.842    -609.262
  C     -615.994     119.136    -608.068
  O     -617.222     119.070    -608.015
  N     -615.258     119.554    -606.992
  C     -613.978     119.754    -607.118
  N     -613.301     120.161    -606.021
  C     -613.261     119.580    -608.401
  C     -613.983     119.117    -609.411
  O     -612.958     121.750    -613.811
  O     -612.179     119.350    -614.371
  H     -617.620     120.485    -609.676
  H     -611.451     119.754    -614.911
  H     -612.209     119.815    -608.475
  H     -613.541     118.957    -610.395
  H     -616.940     117.711    -609.972
  H     -616.007     120.303    -611.356
  H     -617.240     119.527    -613.302
  H     -616.314     116.895    -613.040
  H     -613.829     120.255    -605.153
  H     -613.993     117.659    -613.538
  H     -612.297     120.266    -605.989
  H     -615.185     118.390    -614.622
  P     -619.171     117.565    -613.566
  C     -621.124     118.615    -612.298
  O     -620.698     117.514    -613.073
  O     -618.691     116.319    -614.245
  O     -619.140     118.819    -614.552
  H     -619.436     118.554    -615.439
  H     -622.228     118.629    -612.266
  H     -620.794     119.564    -612.742
  H     -620.747     118.527    -611.286
  H     -614.097     120.129    -617.674
  H     -612.850     119.247    -616.825
  H     -612.745     120.985    -616.972

 3  4  5  6  7  8  9  10  11  12  13  23  27  28  29  30  32 0
 6-311+G(2d,p)
 ****
 34  35 0
 6-311+G(2d,p)
 ****
 1  2  14  15  16  17  18  19  20  21  22  24  25  26 0
 3-21G
 ****
 31  33  36  37  38  39  40  41  42  43  44  45  46 0
 3-21G
 ****


