%nproc=1
%NoSave
%Mem=1900MB
#P OB98/GEN NMR

erre ene a

0 1
  C      545.161     517.361     253.580
  O      546.310     517.250     254.395
  H      544.538     518.171     253.961
  H      544.589     516.430     253.617
  H      545.445     517.588     252.548
  P      547.452     516.236     253.895
  C      547.060     514.352     255.679
  O      547.878     515.401     255.197
  C      546.942     514.421     257.206
  O      548.209     514.036     257.788
  C      546.592     515.814     257.734
  O      545.716     515.663     258.857
  C      547.928     516.371     258.189
  O      547.774     517.393     259.170
  C      548.651     515.104     258.655
  N      550.105     515.248     258.624
  C      550.738     515.479     259.851
  O      550.070     515.571     260.881
  N      552.101     515.644     259.876
  C      552.765     515.647     258.763
  N      554.112     515.830     258.853
  C      552.130     515.457     257.440
  C      550.818     515.253     257.450
  O      548.686     517.227     253.657
  O      547.069     515.422     252.707
  H      547.310     517.003     259.947
  H      548.777     517.911     254.342
  H      552.730     515.480     256.538
  H      550.271     515.100     256.523
  H      548.347     514.848     259.680
  H      548.454     516.812     257.329
  H      546.117     516.454     256.989
  H      546.208     513.678     257.534
  H      554.506     515.976     259.772
  H      547.475     513.383     255.393
  H      554.720     515.903     258.047
  H      546.075     514.453     255.218
  P      544.275     515.006     258.643
  C      542.904     516.230     260.452
  O      543.487     515.000     260.042
  O      544.259     513.709     257.906
  O      543.481     516.132     257.816
  H      542.923     515.683     257.154
  H      542.412     516.095     261.392
  H      542.192     516.549     259.719
  H      543.669     516.971     260.553

 6  7  8  9  10  11  12  13  14  15  16  26  30  31  32  33  35 0
 6-311+G(2d,p)
 ****
 37  38 0
 6-311+G(2d,p)
 ****
 1  2  3  4  5  17  18  19  20  21  22  23  24  25 0
 3-21G
 ****
 27  28  29  34  36  39  40  41  42  43  44  45  46 0
 3-21G
 ****


