%nproc=1
%NoSave
%Mem=1900MB
#P OB98/GEN NMR

erre ene a

0 1
  C      378.191     123.149     -73.071
  O      378.773     122.137     -73.865
  H      378.611     124.116     -73.365
  H      378.416     122.974     -72.016
  H      377.108     123.175     -73.222
  P      378.294     120.633     -73.589
  C      380.511     119.821     -72.513
  O      379.135     120.121     -72.317
  C      380.987     118.802     -71.479
  O      382.312     118.332     -71.856
  C      381.083     119.362     -70.051
  O      380.676     118.346     -69.130
  C      382.570     119.612     -69.882
  O      382.962     119.630     -68.514
  C      383.147     118.453     -70.690
  N      387.889     118.005     -69.054
  C      386.698     117.636     -68.455
  N      386.772     117.065     -67.237
  N      385.525     117.818     -69.014
  C      385.595     118.377     -70.245
  C      386.710     118.792     -70.938
  C      387.999     118.608     -70.301
  O      389.085     118.932     -70.770
  N      386.361     119.346     -72.146
  C      385.043     119.261     -72.185
  N      384.535     118.677     -71.056
  O      378.930     119.808     -74.806
  O      376.820     120.435     -73.487
  H      382.722     118.765     -68.119
  H      378.373     119.037     -75.035
  H      388.760     117.853     -68.577
  H      384.414     119.607     -72.998
  H      383.113     117.504     -70.139
  H      382.845     120.577     -70.333
  H      387.640     116.864     -66.762
  H      380.487     120.262     -69.897
  H      385.911     116.777     -66.784
  H      380.321     117.928     -71.514
  H      381.094     120.743     -72.415
  H      380.650     119.418     -73.523
  P      379.412     118.660     -68.190
  C      380.590     119.350     -65.983
  O      379.834     119.769     -67.111
  O      379.271     117.322     -67.319
  O      378.155     118.943     -68.948
  H      378.489     116.821     -67.609
  H      380.795     120.194     -65.357
  H      381.512     118.918     -66.312
  H      380.033     118.623     -65.430

 6  7  8  9  10  11  12  13  14  15  26  29  33  34 0
 6-311+G(2d,p)
 ****
 36  38  39  40  41 0
 6-311+G(2d,p)
 ****
 1  2  3  4  5  16  17  18  19  20  21  22  23  24  25 0
 3-21G
 ****
 27  28  30  31  32  35  37  42  43  44  45  46  47 0
 3-21G
 ****
 48  49 0
 3-21G
 ****


