%nproc=1
%NoSave
%Mem=1900MB
#P OB98/GEN NMR

erre ene a

0 1
  C      208.741     480.057     315.506
  O      209.410     479.892     316.765
  P      210.931     480.341     317.027
  C      211.676     478.859     319.013
  O      211.249     480.144     318.594
  C      211.400     478.652     320.506
  O      209.988     478.441     320.730
  C      212.066     477.433     321.133
  O      213.460     477.605     321.312
  C      211.275     477.299     322.433
  O      211.802     478.149     323.458
  C      209.872     477.784     322.016
  N      208.882     476.711     321.962
  C      208.633     476.035     323.168
  O      209.285     476.301     324.179
  N      207.660     475.065     323.180
  C      207.076     474.725     322.071
  N      206.108     473.774     322.153
  C      207.407     475.315     320.766
  C      208.312     476.293     320.784
  O      211.253     481.707     316.516
  O      211.834     479.230     316.310
  H      212.693     479.616     316.059
  H      211.825     479.055     323.087
  H      206.922     474.976     319.860
  H      208.611     476.797     319.863
  H      209.519     478.561     322.710
  H      211.291     476.271     322.822
  H      211.873     476.553     320.496
  H      211.706     479.564     321.037
  H      205.893     473.395     323.069
  H      212.758     478.780     318.841
  H      205.572     473.454     321.356
  H      211.174     478.091     318.413
  P      214.396     476.360     320.943
  C      215.315     476.353     323.381
  O      215.609     476.334     321.991
  O      215.094     476.801     319.566
  O      213.675     475.055     320.794
  H      215.157     476.029     318.968
  H      216.123     475.854     323.917
  H      214.369     475.838     323.594
  H      215.246     477.390     323.714
  H      207.741     479.683     315.582
  H      209.268     479.515     314.748
  H      208.715     481.095     315.249

 3  4  5  6  7  8  9  10  11  12  13  24  27  28  29  30  32 0
 6-311+G(2d,p)
 ****
 34  35 0
 6-311+G(2d,p)
 ****
 1  2  14  15  16  17  18  19  20  21  22  23  25  26 0
 3-21G
 ****
 31  33  36  37  38  39  40  41  42  43  44  45  46 0
 3-21G
 ****


