%nproc=1
%NoSave
%Mem=1900MB
#P OB98/GEN NMR

erre ene a

0 1
  C     -113.916     159.244     255.887
  O     -114.231     160.619     255.957
  H     -113.315     159.067     254.993
  H     -114.832     158.653     255.814
  H     -113.340     158.931     256.763
  P     -114.952     161.180     257.272
  C     -112.970     161.662     258.854
  O     -113.929     162.205     257.960
  C     -112.450     162.740     259.813
  O     -111.534     162.113     260.762
  C     -111.674     163.880     259.123
  O     -111.872     165.060     259.914
  C     -110.249     163.367     259.239
  O     -109.295     164.347     258.923
  C     -110.290     162.841     260.680
  N     -109.170     161.994     261.068
  C     -107.893     162.544     261.014
  O     -107.643     163.697     260.667
  N     -106.871     161.708     261.380
  C     -106.997     160.416     261.797
  O     -106.047     159.726     262.142
  C     -108.369     159.889     261.825
  C     -109.377     160.689     261.471
  O     -115.528     160.152     258.187
  O     -116.088     162.152     256.693
  H     -116.953     161.702     256.727
  H     -108.417     163.919     258.826
  H     -105.939     162.091     261.352
  H     -108.506     158.863     262.140
  H     -110.401     160.331     261.492
  H     -110.364     163.680     261.381
  H     -110.088     162.552     258.529
  H     -112.007     164.067     258.099
  H     -113.292     163.131     260.395
  H     -112.139     161.264     258.262
  H     -113.428     160.844     259.419
  P     -112.724     166.326     259.416
  C     -114.522     165.927     261.235
  O     -113.609     166.848     260.650
  O     -113.516     166.073     258.175
  O     -111.653     167.494     259.190
  H     -111.992     168.121     258.524
  H     -115.042     166.403     262.040
  H     -113.985     165.081     261.609
  H     -115.226     165.605     260.496

 6  7  8  9  10  11  12  13  14  15  16  27  31  32  33  34  35 0
 6-311+G(2d,p)
 ****
 36  37 0
 6-311+G(2d,p)
 ****
 1  2  3  4  5  17  18  19  20  21  22  23  24  25 0
 3-21G
 ****
 26  28  29  30  38  39  40  41  42  43  44  45 0
 3-21G
 ****


