%nproc=1
%NoSave
%Mem=1900MB
#P OB98/GEN NMR

erre ene a

0 1
  C     -190.126    -895.680     336.210
  O     -190.171    -894.800     335.098
  H     -189.069    -895.910     336.426
  H     -190.644    -896.610     335.973
  H     -190.567    -895.210     337.094
  P     -191.624    -894.260     334.663
  C     -192.053    -896.080     332.859
  O     -191.830    -894.700     333.135
  C     -192.313    -896.310     331.376
  O     -193.517    -895.570     330.994
  C     -191.178    -895.830     330.448
  O     -191.120    -896.750     329.341
  C     -191.675    -894.490     329.939
  O     -191.048    -894.100     328.725
  C     -193.176    -894.790     329.820
  N     -194.470    -891.020     326.749
  C     -193.687    -892.120     326.529
  N     -193.156    -892.260     325.278
  N     -193.425    -893.040     327.423
  C     -194.057    -892.800     328.616
  C     -194.851    -891.740     328.967
  C     -195.103    -890.730     327.951
  O     -195.763    -889.710     328.118
  N     -195.255    -891.840     330.283
  C     -194.712    -892.980     330.708
  N     -193.973    -893.580     329.732
  O     -191.392    -892.680     334.578
  O     -192.736    -894.620     335.589
  H     -191.361    -894.720     328.029
  H     -191.631    -892.250     335.422
  H     -194.623    -890.330     326.032
  H     -194.819    -893.370     331.704
  H     -193.404    -895.400     328.937
  H     -191.490    -893.710     330.698
  H     -193.355    -891.630     324.516
  H     -190.198    -895.780     330.933
  H     -192.617    -893.100     325.081
  H     -192.551    -897.380     331.217
  H     -192.921    -896.420     333.445
  H     -191.169    -896.660     333.169
  P     -190.000    -897.900     329.360
  C     -188.161    -896.490     328.152
  O     -189.002    -897.640     328.142
  O     -190.816    -899.210     328.899
  O     -189.353    -898.100     330.700
  H     -190.412    -900.000     329.258
  H     -187.564    -896.477     327.264
  H     -187.523    -896.522     329.011
  H     -188.764    -895.607     328.189

 6  7  8  9  10  11  12  13  14  15  26  29  33  34 0
 6-311+G(2d,p)
 ****
 36  38  39  40  41 0
 6-311+G(2d,p)
 ****
 1  2  3  4  5  16  17  18  19  20  21  22  23  24  25 0
 3-21G
 ****
 27  28  30  31  32  35  37  42  43  44  45  46  47 0
 3-21G
 ****
 48  49 0
 3-21G
 ****


