%nproc=1
%NoSave
%Mem=1900MB
#P OB98/GEN NMR

erre ene a

0 1
  C     -109.340     122.660     -20.116
  O     -109.088     123.985     -20.526
  H     -108.872     122.501     -19.142
  H     -108.900     121.964     -20.835
  H     -110.412     122.465     -20.026
  P     -110.010     124.628     -21.663
  C     -108.230     124.438     -23.523
  O     -109.527     124.054     -23.084
  C     -107.733     123.549     -24.662
  O     -107.532     122.204     -24.176
  C     -108.735     123.456     -25.815
  O     -108.615     124.485     -26.782
  C     -108.396     122.095     -26.419
  O     -107.361     122.206     -27.410
  C     -107.902     121.287     -25.214
  N     -109.422     116.417     -24.869
  C     -108.407     116.956     -25.639
  N     -107.747     116.090     -26.437
  N     -108.093     118.225     -25.628
  C     -108.906     118.980     -24.856
  C     -109.953     118.563     -24.066
  C     -110.247     117.146     -24.026
  O     -111.123     116.618     -23.350
  N     -110.578     119.623     -23.454
  C     -109.962     120.681     -23.942
  N     -108.891     120.339     -24.733
  O     -109.519     126.154     -21.724
  O     -111.486     124.559     -21.412
  H     -107.169     121.310     -27.748
  H     -110.265     126.727     -21.974
  H     -109.598     115.430     -24.897
  H     -110.220     121.710     -23.722
  H     -107.003     120.709     -25.464
  H     -109.266     121.664     -26.920
  H     -108.003     115.123     -26.549
  H     -109.760     123.414     -25.436
  H     -107.127     116.473     -27.154
  H     -106.757     123.914     -25.006
  H     -107.570     124.345     -22.660
  H     -108.228     125.488     -23.828
  P     -109.885     124.980     -27.616
  C     -109.269     123.149     -29.394
  O     -110.262     123.851     -28.679
  O     -109.287     126.155     -28.521
  O     -111.050     125.437     -26.801
  H     -109.479     127.026     -28.126
  H     -109.734     122.442     -30.049
  H     -108.632     122.633     -28.706
  H     -108.688     123.840     -29.969

 6  7  8  9  10  11  12  13  14  15  26  29  33  34 0
 6-311+G(2d,p)
 ****
 36  38  39  40  41 0
 6-311+G(2d,p)
 ****
 1  2  3  4  5  16  17  18  19  20  21  22  23  24  25 0
 3-21G
 ****
 27  28  30  31  32  35  37  42  43  44  45  46  47 0
 3-21G
 ****
 48  49 0
 3-21G
 ****


