%nproc=1
%NoSave
%Mem=1900MB
#P OB98/GEN NMR

erre ene a

0 1
  C     -727.953    -194.296     135.412
  O     -727.527    -192.947     135.588
  P     -728.457    -191.965     136.438
  C     -728.137    -189.758     135.109
  O     -727.869    -190.466     136.324
  C     -727.104    -188.648     134.885
  O     -727.097    -187.768     136.054
  C     -725.658    -189.138     134.727
  O     -725.194    -189.458     133.420
  C     -724.871    -187.904     135.176
  O     -724.753    -186.973     134.069
  C     -725.747    -187.292     136.263
  N     -722.226    -186.367     139.869
  C     -722.403    -185.861     138.621
  N     -723.371    -186.159     137.730
  C     -724.211    -187.078     138.229
  C     -724.164    -187.681     139.476
  C     -723.102    -187.303     140.314
  N     -722.916    -187.821     141.581
  N     -725.194    -188.571     139.627
  C     -725.854    -188.533     138.479
  N     -725.301    -187.628     137.607
  O     -728.807    -192.404     137.819
  O     -729.784    -191.863     135.523
  H     -724.207    -187.420     133.396
  H     -730.563    -191.822     136.107
  H     -721.677    -185.122     138.308
  H     -726.720    -189.125     138.246
  H     -725.788    -186.194     136.206
  H     -723.848    -188.141     135.490
  H     -725.443    -189.971     135.411
  H     -727.393    -188.047     134.020
  H     -729.143    -189.318     135.163
  H     -722.111    -187.519     142.098
  H     -723.531    -188.548     141.911
  H     -728.150    -190.487     134.298
  P     -724.041    -190.546     133.193
  C     -724.026    -189.491     130.783
  O     -723.839    -190.624     131.593
  O     -724.263    -191.856     133.860
  O     -722.725    -189.761     133.670
  H     -722.468    -189.020     133.094
  H     -723.638    -189.702     129.790
  H     -723.495    -188.634     131.204
  H     -725.093    -189.266     130.707
  H     -727.231    -194.824     134.825
  H     -728.898    -194.309     134.911
  H     -728.050    -194.767     136.368

 3  4  5  6  7  8  9  10  11  12  22  25  29  30  31  32 0
 6-311+G(2d,p)
 ****
 33  36  37 0
 6-311+G(2d,p)
 ****
 1  2  13  14  15  16  17  18  19  20  21  23  24  26 0
 3-21G
 ****
 27  28  34  35  38  39  40  41  42  43  44  45  46  47  48 0
 3-21G
 ****


