%nproc=1
%NoSave
%Mem=1900MB
#P OB98/GEN NMR

erre ene a

0 1
  C     1018.398    -567.513    -196.138
  O     1018.022    -568.686    -195.436
  H     1017.645    -566.743    -195.953
  H     1018.442    -567.706    -197.208
  H     1019.368    -567.153    -195.784
  P     1018.968    -569.976    -195.550
  C     1019.229    -572.147    -194.170
  O     1018.752    -570.805    -194.190
  C     1020.503    -572.230    -193.342
  O     1021.630    -571.724    -194.086
  C     1020.461    -571.427    -192.037
  O     1019.761    -572.152    -191.033
  C     1021.939    -571.274    -191.755
  O     1022.465    -572.510    -191.225
  C     1022.500    -571.022    -193.165
  N     1025.538    -567.098    -194.245
  C     1025.855    -568.385    -193.831
  N     1027.166    -568.633    -193.618
  N     1024.964    -569.307    -193.601
  C     1023.689    -568.896    -193.773
  C     1023.254    -567.645    -194.172
  C     1024.243    -566.636    -194.461
  O     1024.006    -565.498    -194.861
  N     1021.879    -567.575    -194.176
  C     1021.500    -568.784    -193.820
  N     1022.560    -569.612    -193.559
  O     1020.411    -569.710    -195.870
  O     1018.260    -570.886    -196.656
  H     1021.943    -572.710    -190.434
  H     1018.619    -570.697    -197.548
  H     1026.268    -566.413    -194.378
  H     1020.451    -569.105    -193.747
  H     1023.510    -571.428    -193.294
  H     1022.159    -570.489    -191.032
  H     1027.843    -567.896    -193.501
  H     1020.028    -570.432    -192.191
  H     1027.416    -569.554    -193.273
  H     1020.705    -573.294    -193.136
  H     1019.423    -572.447    -195.203
  H     1018.471    -572.810    -193.740
  P     1018.719    -571.419    -190.057
  C     1016.946    -572.250    -188.358
  O     1017.975    -572.618    -189.275
  O     1017.796    -570.452    -190.743
  O     1019.615    -570.764    -188.916
  H     1019.925    -569.854    -189.129
  H     1016.536    -573.131    -187.909
  H     1016.174    -571.724    -188.880
  H     1017.355    -571.619    -187.597

 6  7  8  9  10  11  12  13  14  15  26  29  33  34 0
 6-311+G(2d,p)
 ****
 36  38  39  40  41 0
 6-311+G(2d,p)
 ****
 1  2  3  4  5  16  17  18  19  20  21  22  23  24  25 0
 3-21G
 ****
 27  28  30  31  32  35  37  42  43  44  45  46  47 0
 3-21G
 ****
 48  49 0
 3-21G
 ****


