%nproc=1
%NoSave
%Mem=1900MB
#P OB98/GEN NMR

erre ene a

0 1
  C      158.171      77.610    -191.573
  O      158.825      78.237    -192.658
  H      157.300      78.212    -191.296
  H      158.837      77.539    -190.710
  H      157.824      76.613    -191.862
  P      160.179      77.588    -193.219
  C      160.466      75.728    -194.989
  O      159.831      76.960    -194.657
  C      159.925      75.198    -196.325
  O      158.645      74.572    -196.065
  C      159.716      76.317    -197.358
  O      160.359      76.055    -198.607
  C      158.202      76.503    -197.368
  O      157.681      77.017    -198.578
  C      157.678      75.113    -196.986
  N      156.345      75.129    -196.387
  C      155.266      75.355    -197.238
  O      155.344      75.520    -198.456
  N      154.033      75.380    -196.634
  C      153.784      75.214    -195.306
  O      152.655      75.240    -194.823
  C      154.964      74.998    -194.453
  C      156.172      74.968    -195.025
  O      160.889      76.663    -192.287
  O      161.089      78.854    -193.594
  H      156.726      76.792    -198.611
  H      161.763      78.988    -192.902
  H      153.243      75.533    -197.243
  H      154.805      74.873    -193.392
  H      157.067      74.811    -194.426
  H      157.642      74.464    -197.863
  H      157.939      77.216    -196.578
  H      160.187      77.250    -197.026
  H      160.605      74.423    -196.698
  H      160.258      75.014    -194.184
  H      161.548      75.880    -195.061
  P      161.676      76.794    -199.124
  C      163.672      76.067    -200.662
  O      162.303      75.923    -200.312
  O      162.611      77.266    -198.062
  O      161.094      78.099    -199.879
  H      161.755      78.812    -199.754
  H      163.904      75.407    -201.472
  H      164.283      75.825    -199.818
  H      163.860      77.077    -200.960

 6  7  8  9  10  11  12  13  14  15  16  26  31  32  33  34  35 0
 6-311+G(2d,p)
 ****
 36  37 0
 6-311+G(2d,p)
 ****
 1  2  3  4  5  17  18  19  20  21  22  23  24  25 0
 3-21G
 ****
 27  28  29  30  38  39  40  41  42  43  44  45 0
 3-21G
 ****


