%nproc=1
%NoSave
%Mem=1900MB
#P OB98/GEN NMR

erre ene a

0 1
  C      238.521     164.701    -656.573
  O      238.522     163.952    -655.361
  P      237.262     164.075    -654.380
  C      238.229     165.707    -652.537
  O      237.324     165.462    -653.588
  C      238.151     167.195    -652.141
  O      236.785     167.564    -651.868
  C      238.966     167.530    -650.899
  O      240.317     167.825    -651.204
  C      238.204     168.714    -650.331
  O      238.519     169.912    -651.069
  C      236.740     168.286    -650.598
  N      236.065     167.435    -649.598
  C      235.164     168.004    -648.702
  O      234.875     169.195    -648.676
  N      234.571     167.146    -647.816
  C      234.654     165.781    -647.836
  O      234.049     165.058    -647.055
  C      235.499     165.222    -648.894
  C      236.166     166.054    -649.696
  O      237.552     162.980    -653.254
  O      235.941     163.858    -655.045
  H      238.361     169.719    -652.015
  H      236.876     162.275    -653.279
  H      233.971     167.550    -647.115
  H      235.555     164.147    -648.979
  H      236.798     165.649    -650.485
  H      236.102     169.167    -650.747
  H      238.486     168.908    -649.300
  H      238.900     166.713    -650.176
  H      238.500     167.798    -652.990
  H      239.252     165.461    -652.838
  H      237.985     165.076    -651.679
  P      241.488     166.951    -650.553
  C      242.077     168.455    -648.564
  O      241.439     167.260    -648.980
  O      242.834     167.072    -651.193
  O      240.919     165.446    -650.622
  H      241.269     164.984    -651.421
  H      241.842     168.633    -647.511
  H      241.727     169.309    -649.154
  H      243.162     168.353    -648.672
  H      239.426     164.510    -657.111
  H      238.454     165.745    -656.347
  H      237.682     164.411    -657.171

 3  4  5  6  7  8  9  10  11  12  13  23  28  29  30  31  32 0
 6-311+G(2d,p)
 ****
 33  34 0
 6-311+G(2d,p)
 ****
 1  2  14  15  16  17  18  19  20  21  22  24  25  26  27 0
 3-21G
 ****
 35  36  37  38  39  40  41  42  43  44  45 0
 3-21G
 ****


