%nproc=1
%NoSave
%Mem=1900MB
#P OB98/GEN NMR

erre ene a

0 1
  C      -27.548     -53.109      -3.826
  O      -28.928     -53.319      -4.052
  H      -27.199     -53.843      -3.095
  H      -27.380     -52.108      -3.421
  H      -26.979     -53.238      -4.750
  P      -29.659     -52.473      -5.199
  C      -31.781     -52.342      -3.738
  O      -30.812     -51.619      -4.486
  C      -32.046     -51.633      -2.412
  O      -30.799     -51.340      -1.745
  C      -32.759     -50.295      -2.562
  O      -34.137     -50.475      -2.823
  C      -32.443     -49.652      -1.221
  O      -33.326     -50.136      -0.198
  C      -30.996     -50.131      -0.976
  N      -29.997     -49.120      -1.318
  C      -29.686     -48.196      -0.326
  O      -30.229     -48.181       0.778
  N      -28.742     -47.260      -0.658
  C      -28.179     -47.093      -1.889
  O      -27.405     -46.181      -2.159
  C      -28.563     -48.083      -2.905
  C      -29.438     -49.036      -2.578
  O      -30.096     -53.249      -6.396
  O      -28.578     -51.357      -5.590
  H      -34.232     -50.041      -0.548
  H      -28.170     -51.587      -6.446
  H      -28.514     -46.573       0.043
  H      -28.127     -47.992      -3.890
  H      -29.738     -49.770      -3.316
  H      -30.859     -50.404       0.078
  H      -32.549     -48.567      -1.248
  H      -32.288     -49.705      -3.356
  H      -32.622     -52.312      -1.769
  H      -31.396     -53.348      -3.543
  H      -32.700     -52.420      -4.328
  P      -34.741     -50.059      -4.245
  C      -36.417     -48.647      -2.904
  O      -35.569     -48.700      -4.046
  O      -35.466     -51.140      -4.973
  O      -33.459     -49.578      -5.075
  H      -33.356     -50.143      -5.865
  H      -36.916     -47.701      -2.874
  H      -35.830     -48.769      -2.018
  H      -37.143     -49.431      -2.962

 6  7  8  9  10  11  12  13  14  15  16  26  31  32  33  34  35 0
 6-311+G(2d,p)
 ****
 36  37 0
 6-311+G(2d,p)
 ****
 1  2  3  4  5  17  18  19  20  21  22  23  24  25 0
 3-21G
 ****
 27  28  29  30  38  39  40  41  42  43  44  45 0
 3-21G
 ****


