%nproc=1
%NoSave
%Mem=1900MB
#P OB98/GEN NMR

erre ene a

0 1
  C     -613.629      36.595     279.983
  O     -613.382      35.219     279.781
  H     -613.793      36.769     281.052
  H     -614.535      36.902     279.447
  H     -612.777      37.201     279.657
  P     -612.964      34.723     278.317
  C     -611.367      32.897     279.201
  O     -611.495      34.090     278.433
  C     -609.994      32.858     279.873
  O     -609.866      33.942     280.822
  C     -609.727      31.581     280.660
  O     -609.428      30.496     279.812
  C     -608.583      32.024     281.556
  O     -607.334      31.976     280.859
  C     -608.985      33.479     281.882
  N     -609.618      33.619     283.191
  C     -608.943      33.057     284.277
  O     -607.892      32.431     284.150
  N     -609.544      33.197     285.491
  C     -610.778      33.744     285.719
  O     -611.319      33.770     286.826
  C     -611.452      34.306     284.550
  C     -610.863      34.223     283.356
  O     -613.137      35.721     277.221
  O     -613.895      33.426     278.081
  H     -607.236      31.062     280.523
  H     -614.612      33.664     277.466
  H     -609.083      32.783     286.286
  H     -612.429      34.765     284.683
  H     -611.347      34.631     282.466
  H     -608.108      34.142     281.855
  H     -608.486      31.393     282.439
  H     -610.595      31.339     281.290
  H     -609.228      32.996     279.093
  H     -611.474      32.043     278.532
  H     -612.169      32.869     279.954
  P     -610.456      29.283     279.650
  C     -610.203      29.057     277.100
  O     -611.092      29.361     278.173
  O     -611.460      29.143     280.760
  O     -609.519      27.984     279.572
  H     -609.728      27.387     280.311
  H     -610.726      29.139     276.170
  H     -609.833      28.060     277.215
  H     -609.383      29.745     277.110

 6  7  8  9  10  11  12  13  14  15  16  26  31  32  33  34  35 0
 6-311+G(2d,p)
 ****
 36  37 0
 6-311+G(2d,p)
 ****
 1  2  3  4  5  17  18  19  20  21  22  23  24  25 0
 3-21G
 ****
 27  28  29  30  38  39  40  41  42  43  44  45 0
 3-21G
 ****


