%nproc=1
%NoSave
%Mem=1900MB
#P OB98/GEN NMR

erre ene a

0 1
  C       41.551      26.336      -9.662
  O       41.686      26.012      -8.295
  P       40.487      26.121      -7.245
  C       42.216      25.977      -5.312
  O       41.086      26.653      -5.852
  C       42.840      26.714      -4.117
  O       43.450      27.938      -4.574
  C       41.751      27.118      -3.120
  O       41.284      26.191      -2.160
  C       42.212      28.454      -2.551
  O       42.857      28.317      -1.284
  C       43.198      28.966      -3.603
  N       43.939      33.930      -4.313
  C       44.787      32.996      -3.752
  N       45.883      33.489      -3.136
  N       44.562      31.708      -3.774
  C       43.378      31.377      -4.340
  C       42.463      32.210      -4.941
  C       42.744      33.626      -4.947
  O       41.978      34.493      -5.359
  N       41.342      31.531      -5.342
  C       41.557      30.293      -4.949
  N       42.761      30.159      -4.300
  O       39.511      24.989      -7.219
  O       39.703      27.421      -7.795
  H       42.166      28.207      -0.606
  H       38.752      27.281      -7.627
  H       44.126      34.918      -4.196
  H       40.864      29.471      -5.076
  H       44.165      29.203      -3.142
  H       41.357      29.122      -2.391
  H       46.013      34.477      -2.974
  H       40.857      27.358      -3.710
  H       46.435      32.854      -2.570
  H       43.648      26.127      -3.673
  H       42.946      25.862      -6.119
  H       41.924      24.972      -4.998
  P       39.927      26.295      -1.321
  C       40.736      24.315       0.082
  O       40.163      25.610       0.106
  O       38.933      25.271      -2.047
  O       39.321      27.659      -1.271
  H       38.010      25.510      -1.847
  H       40.571      23.835       1.049
  H       41.813      24.396      -0.096
  H       40.284      23.702      -0.703
  H       42.486      26.183     -10.159
  H       41.259      27.361      -9.758
  H       40.805      25.709     -10.105

 3  4  5  6  7  8  9  10  11  12  23  26  30  31 0
 6-311+G(2d,p)
 ****
 33  35  36  37  38 0
 6-311+G(2d,p)
 ****
 1  2  13  14  15  16  17  18  19  20  21  22  24  25 0
 3-21G
 ****
 27  28  29  32  34  39  40  41  42  43  44  45  46  47  48  49 0
 3-21G
 ****


