%nproc=1
%NoSave
%Mem=1900MB
#P OB98/GEN NMR

erre ene a

0 1
  C      -15.526     -85.076    -154.096
  O      -16.457     -85.450    -153.099
  H      -16.074     -84.733    -154.976
  H      -14.910     -85.935    -154.376
  H      -14.890     -84.264    -153.735
  P      -15.851     -85.968    -151.707
  C      -17.281     -84.563    -150.052
  O      -16.014     -84.760    -150.665
  C      -17.817     -83.181    -150.412
  O      -18.211     -83.157    -151.804
  C      -19.061     -82.780    -149.631
  O      -18.758     -82.337    -148.322
  C      -19.628     -81.688    -150.525
  O      -18.995     -80.427    -150.278
  C      -19.281     -82.192    -151.930
  N      -23.807     -81.238    -154.087
  C      -22.854     -80.420    -153.592
  N      -21.666     -80.753    -153.044
  C      -21.494     -82.085    -153.063
  C      -22.374     -83.043    -153.538
  C      -23.584     -82.573    -154.074
  N      -24.566     -83.405    -154.556
  N      -21.861     -84.310    -153.349
  C      -20.688     -84.123    -152.779
  N      -20.422     -82.795    -152.590
  O      -14.277     -86.014    -151.994
  O      -16.371     -87.285    -151.242
  H      -19.141     -80.228    -149.333
  H      -14.009     -86.932    -152.187
  H      -23.078     -79.358    -153.631
  H      -20.006     -84.909    -152.479
  H      -18.918     -81.388    -152.582
  H      -20.697     -81.563    -150.355
  H      -19.772     -83.614    -149.601
  H      -17.014     -82.446    -150.272
  H      -17.174     -84.636    -148.965
  H      -17.967     -85.344    -150.395
  H      -25.436     -83.003    -154.862
  H      -24.457     -84.405    -154.446
  P      -18.965     -83.374    -147.118
  C      -16.736     -82.850    -145.872
  O      -17.510     -83.796    -146.597
  O      -19.509     -84.695    -147.839
  O      -19.892     -82.906    -146.048
  H      -20.156     -85.146    -147.263
  H      -15.799     -83.289    -145.600
  H      -17.264     -82.560    -144.987
  H      -16.563     -81.988    -146.482

 6  7  8  9  10  11  12  13  14  15  25  28  32  33  34  35 0
 6-311+G(2d,p)
 ****
 36  37  40 0
 6-311+G(2d,p)
 ****
 1  2  3  4  5  16  17  18  19  20  21  22  23  24 0
 3-21G
 ****
 26  27  29  30  31  38  39 41  42  43  44  45  46  47  48 0
 3-21G
 ****


