%nproc=1
%NoSave
%Mem=1900MB
#P OB98/GEN NMR

erre ene a

0 1
  C     -131.759     177.380     -79.107
  O     -130.679     178.180     -78.654
  P     -130.056     179.247     -79.677
  C     -128.201     177.572     -80.351
  O     -129.270     178.402     -80.793
  C     -126.906     177.921     -81.076
  O     -127.138     177.853     -82.511
  C     -126.364     179.324     -80.761
  O     -124.943     179.251     -80.569
  C     -126.615     180.099     -82.043
  O     -125.713     181.191     -82.194
  C     -126.449     178.987     -83.077
  N     -125.971     182.043     -87.069
  C     -125.114     181.840     -86.009
  N     -123.997     182.603     -85.981
  N     -125.328     180.971     -85.055
  C     -126.469     180.257     -85.230
  C     -127.394     180.360     -86.242
  C     -127.172     181.370     -87.257
  O     -127.938     181.658     -88.172
  N     -128.412     179.452     -86.083
  C     -128.106     178.807     -84.975
  N     -126.961     179.289     -84.394
  O     -128.889     179.925     -78.819
  O     -131.013     180.268     -80.193
  H     -124.846     180.814     -82.433
  H     -129.020     180.893     -78.791
  H     -125.768     182.738     -87.766
  H     -128.695     178.006     -84.542
  H     -125.388     178.720     -83.185
  H     -127.639     180.490     -82.032
  H     -123.751     183.263     -86.700
  H     -126.830     179.801     -79.891
  H     -123.344     182.449     -85.222
  H     -126.157     177.154     -80.838
  H     -128.456     176.526     -80.550
  H     -128.077     177.706     -79.271
  P     -124.317     180.308     -79.538
  C     -124.072     182.097     -81.417
  O     -124.618     181.754     -80.159
  O     -122.738     180.128     -79.735
  O     -124.742     180.100     -78.120
  H     -122.258     180.413     -78.934
  H     -123.613     181.239     -81.914
  H     -123.313     182.869     -81.275
  H     -124.869     182.491     -82.054
  H     -132.068     176.721     -78.323
  H     -131.447     176.806     -79.954
  H     -132.577     178.010     -79.386

 3  4  5  6  7  8  9  10  11  12  23  26  30  31  33  0
 6-311+G(2d,p)
 ****
 35  36  37  38 0
 6-311+G(2d,p)
 ****
 1  2  13  14  15  16  17  18  19  20  21  22  24  25  27  28  29 0
 3-21G
 ****
 32  34  39  40  41  42  43  44  45  46  47  48  49 0
 3-21G
 ****


