%nproc=1
%NoSave
%Mem=1900MB
#P OB98/GEN NMR

erre ene a

0 1
  C      558.365     312.620    -651.402
  O      558.693     313.485    -652.482
  P      557.625     313.628    -653.677
  C      557.232     315.484    -655.448
  O      557.679     315.161    -654.132
  C      557.489     316.963    -655.749
  O      556.724     317.801    -654.853
  C      558.934     317.403    -655.573
  O      559.738     317.083    -656.711
  C      558.772     318.900    -655.457
  O      558.593     319.489    -656.752
  C      557.472     319.016    -654.635
  N      558.437     322.418    -650.932
  C      558.331     322.555    -652.276
  N      558.091     321.597    -653.196
  C      557.984     320.389    -652.614
  C      558.108     320.099    -651.262
  C      558.341     321.179    -650.395
  N      558.419     321.046    -649.030
  N      557.940     318.743    -651.038
  C      557.706     318.233    -652.232
  N      557.717     319.184    -653.215
  O      556.215     313.515    -652.912
  O      557.755     312.610    -654.762
  H      558.459     320.453    -656.614
  H      555.528     313.225    -653.528
  H      558.462     323.561    -652.659
  H      557.521     317.180    -652.440
  H      556.848     319.857    -654.960
  H      559.641     319.397    -655.006
  H      559.362     317.005    -654.647
  H      557.152     317.157    -656.779
  H      556.156     315.290    -655.523
  H      558.397     321.885    -648.473
  H      558.138     320.164    -648.620
  H      557.762     314.848    -656.164
  P      561.317     317.337    -656.575
  C      563.363     316.102    -657.606
  O      562.014     316.031    -657.192
  O      561.578     317.208    -655.002
  O      561.775     318.659    -657.122
  H      562.374     317.718    -654.744
  H      563.761     315.096    -657.695
  H      563.973     316.647    -656.857
  H      563.440     316.610    -658.572
  H      559.161     312.624    -650.687
  H      558.223     311.626    -651.772
  H      557.464     312.959    -650.934

 3  4  5  6  7  8  9  10  11  12  22  25  29  30  31  32 0
 6-311+G(2d,p)
 ****
 33  36  37 0
 6-311+G(2d,p)
 ****
 1  2  13  14  15  16  17  18  19  20  21  23  24  26 0
 3-21G
 ****
 27  28  34  35  38  39  40  41  42  43  44  45  46  47  48 0
 3-21G
 ****


