%nproc=1
%NoSave
%Mem=1900MB
#P OB98/GEN NMR

erre ene a

0 1
  C       23.770    -107.968     -45.785
  O       25.139    -108.186     -45.418
  P       25.615    -109.367     -44.441
  C       25.334    -108.233     -42.131
  O       24.838    -109.204     -43.046
  C       24.909    -108.568     -40.700
  O       23.478    -108.406     -40.550
  C       25.168    -110.001     -40.263
  O       26.540    -110.253     -40.019
  C       24.281    -110.101     -39.023
  O       24.949    -109.590     -37.860
  C       23.097    -109.187     -39.393
  N       21.868    -109.922     -39.640
  C       21.282    -110.551     -38.539
  O       21.842    -110.538     -37.443
  N       20.081    -111.193     -38.713
  C       19.568    -111.291     -39.900
  N       18.367    -111.922     -40.009
  C       20.224    -110.759     -41.109
  C       21.358    -110.091     -40.908
  O       27.097    -109.471     -44.293
  O       25.002    -110.707     -45.068
  H       25.553    -111.469     -44.810
  H       25.332    -108.727     -38.111
  H       19.783    -110.899     -42.085
  H       21.899    -109.654     -41.741
  H       22.924    -108.454     -38.596
  H       23.995    -111.134     -38.803
  H       24.794    -110.687     -41.032
  H       25.412    -107.865     -40.022
  H       17.940    -112.266     -39.158
  H       24.920    -107.256     -42.404
  H       17.873    -112.031     -40.882
  H       26.425    -108.184     -42.215
  P       27.352    -111.024     -41.167
  C       26.445    -113.428     -40.802
  O       26.471    -112.280     -41.627
  O       28.581    -111.686     -40.380
  O       27.830    -110.151     -42.280
  H       29.386    -111.634     -40.926
  H       25.497    -113.949     -40.958
  H       26.537    -113.168     -39.744
  H       27.263    -114.093     -41.084
  H       23.707    -107.126     -46.442
  H       23.191    -107.779     -44.905
  H       23.391    -108.837     -46.282

 3  4  5  6  7  8  9  10  11  12  13  24  27  28  29  30  32 0
 6-311+G(2d,p)
 ****
 34  35 0
 6-311+G(2d,p)
 ****
 1  2  14  15  16  17  18  19  20  21  22  23  25  26 0
 3-21G
 ****
 31  33  36  37  38  39  40  41  42  43  44  45  46 0
 3-21G
 ****


