%nproc=1
%NoSave
%Mem=1900MB
#P OB98/GEN NMR

erre ene a

0 1
  C      103.115     -90.408     101.275
  O      103.588     -90.204      99.960
  H      102.494     -91.307     101.288
  H      102.505     -89.558     101.592
  H      103.946     -90.549     101.971
  P      104.674     -89.055      99.699
  C      106.734     -90.608      99.794
  O      106.032     -89.534     100.401
  C      107.878     -90.086      98.917
  O      108.807     -89.340      99.761
  C      108.694     -91.191      98.215
  O      109.183     -90.635      96.986
  C      109.817     -91.396      99.216
  O      110.868     -92.171      98.699
  C      110.112     -89.930      99.566
  N      110.950     -89.724     100.740
  C      112.331     -89.716     100.553
  O      112.891     -89.869      99.468
  N      113.080     -89.528     101.686
  C      112.599     -89.334     102.946
  O      113.319     -89.138     103.917
  C      111.134     -89.360     103.080
  C      110.390     -89.544     101.988
  O      104.243     -87.667     100.036
  O      105.011     -89.204      98.140
  H      104.541     -88.512      97.636
  H      110.515     -93.041      98.414
  H      114.083     -89.515     101.569
  H      110.719     -89.220     104.070
  H      109.306     -89.556     102.053
  H      110.565     -89.426      98.707
  H      109.445     -91.939     100.088
  H      108.106     -92.088      98.003
  H      107.469     -89.375      98.188
  H      106.027     -91.175      99.178
  H      107.130     -91.266     100.576
  P      108.648     -91.080      95.539
  C      107.154     -88.975      95.336
  O      107.212     -90.399      95.308
  O      108.653     -92.559      95.320
  O      109.602     -90.339      94.488
  H      109.629     -90.849      93.657
  H      106.146     -88.656      95.170
  H      107.785     -88.577      94.569
  H      107.487     -88.623      96.290

 6  7  8  9  10  11  12  13  14  15  16  27  31  32  33  34  35 0
 6-311+G(2d,p)
 ****
 36  37 0
 6-311+G(2d,p)
 ****
 1  2  3  4  5  17  18  19  20  21  22  23  24  25 0
 3-21G
 ****
 26  28  29  30  38  39  40  41  42  43  44  45 0
 3-21G
 ****


