%nproc=1
%NoSave
%Mem=1900MB
#P OB98/GEN NMR

erre ene a

0 1
  C     -897.590     186.560    -888.220
  O     -897.000     185.297    -888.420
  H     -896.940     187.160    -887.570
  H     -898.560     186.443    -887.720
  H     -897.730     187.083    -889.170
  P     -897.810     184.262    -889.340
  C     -895.780     184.159    -890.950
  O     -897.170     184.368    -890.810
  C     -895.270     184.700    -892.290
  O     -895.560     183.712    -893.340
  C     -895.930     186.025    -892.700
  O     -894.950     186.844    -893.360
  C     -896.970     185.591    -893.730
  O     -897.320     186.648    -894.620
  C     -896.220     184.428    -894.390
  N     -898.880     183.991    -898.660
  C     -898.020     184.981    -898.250
  N     -897.810     186.033    -899.080
  N     -897.390     184.960    -897.100
  C     -897.650     183.843    -896.370
  C     -898.490     182.809    -896.660
  C     -899.210     182.855    -897.930
  O     -900.000     182.015    -898.360
  N     -898.520     181.878    -895.660
  C     -897.700     182.358    -894.730
  N     -897.140     183.553    -895.130
  O     -899.240     184.947    -889.510
  O     -897.900     182.869    -888.790
  H     -898.000     186.291    -895.240
  H     -899.950     184.271    -889.610
  H     -899.350     184.064    -899.550
  H     -897.450     181.898    -893.770
  H     -895.470     184.762    -895.120
  H     -897.880     185.239    -893.230
  H     -898.240     186.092    -900.000
  H     -896.380     186.568    -891.870
  H     -897.180     186.759    -898.780
  H     -894.180     184.798    -892.260
  H     -895.580     183.070    -890.900
  H     -895.240     184.655    -890.130
  P     -894.320     188.060    -892.510
  C     -891.900     187.504    -893.270
  O     -892.780     187.713    -892.190
  O     -895.040     187.919    -891.100
  O     -894.550     189.406    -893.120
  H     -895.680     188.652    -890.980
  H     -890.922     187.285    -892.896
  H     -891.861     188.386    -893.874
  H     -892.248     186.682    -893.860

 6  7  8  9  10  11  12  13  14  15  26  29  33  34 0
 6-311+G(2d,p)
 ****
 36  38  39  40  41 0
 6-311+G(2d,p)
 ****
 1  2  3  4  5  16  17  18  19  20  21  22  23  24  25 0
 3-21G
 ****
 27  28  30  31  32  35  37  42  43  44  45  46  47 0
 3-21G
 ****
 48  49 0
 3-21G
 ****


