%nproc=1
%NoSave
%Mem=1900MB
#P OB98/GEN NMR

erre ene a

0 1
  C       30.979      91.333     -69.463
  O       30.585      90.466     -68.409
  P       29.014      90.201     -68.209
  C       27.013      91.783     -67.675
  O       28.409      91.537     -67.554
  C       26.508      92.562     -66.468
  O       26.825      91.871     -65.240
  C       27.125      93.947     -66.315
  O       26.502      94.911     -67.152
  C       26.823      94.242     -64.853
  O       25.460      94.685     -64.712
  C       27.008      92.864     -64.203
  N       29.766      93.639     -60.027
  C       28.403      93.754     -60.222
  N       27.681      94.199     -59.168
  N       27.801      93.459     -61.345
  C       28.650      93.038     -62.313
  C       30.016      92.881     -62.242
  C       30.672      93.221     -60.996
  O       31.879      93.188     -60.780
  N       30.528      92.422     -63.425
  C       29.480      92.302     -64.214
  N       28.322      92.704     -63.601
  O       28.969      89.150     -67.003
  O       28.306      89.696     -69.419
  H       25.331      94.900     -63.765
  H       28.094      88.712     -66.972
  H       30.184      93.884     -59.146
  H       29.512      91.943     -65.239
  H       26.255      92.673     -63.430
  H       27.460      95.029     -64.439
  H       28.096      94.501     -58.297
  H       28.213      93.918     -66.464
  H       26.692      94.356     -59.299
  H       25.414      92.632     -66.543
  H       26.485      90.828     -67.744
  H       26.826      92.345     -68.598
  P       27.402      96.164     -67.602
  C       28.394      98.175     -66.288
  O       27.424      97.145     -66.334
  O       26.463      96.916     -68.658
  O       28.728      95.801     -68.179
  H       27.006      97.427     -69.291
  H       28.105      98.894     -65.514
  H       28.462      98.700     -67.243
  H       29.368      97.755     -66.027
  H       32.046      91.416     -69.477
  H       30.548      92.300     -69.309
  H       30.640      90.936     -70.397

 3  4  5  6  7  8  9  10  11  12  23  26  30  31 0
 6-311+G(2d,p)
 ****
 33  35  36  37  38 0
 6-311+G(2d,p)
 ****
 1  2  13  14  15  16  17  18  19  20  21  22  24  25 0
 3-21G
 ****
 27  28  29  32  34  39  40  41  42  43  44  45  46  47  48  49 0
 3-21G
 ****


