%nproc=1
%NoSave
%Mem=1900MB
#P OB98/GEN NMR

erre ene a

0 1
  C     -133.914      78.124     240.052
  O     -132.956      78.612     240.970
  H     -134.549      78.957     239.734
  H     -134.546      77.369     240.530
  H     -133.427      77.701     239.168
  P     -131.801      77.623     241.476
  C     -132.629      77.239     243.895
  O     -132.452      76.678     242.598
  C     -133.025      76.147     244.886
  O     -134.369      75.687     244.608
  C     -132.142      74.904     244.820
  O     -130.895      75.126     245.456
  C     -133.034      73.881     245.506
  O     -132.953      74.003     246.933
  C     -134.433      74.296     244.995
  N     -134.901      73.463     243.885
  C     -135.191      72.133     244.184
  O     -135.040      71.644     245.305
  N     -135.638      71.372     243.136
  C     -135.709      71.767     241.830
  O     -136.025      71.013     240.913
  C     -135.367      73.170     241.566
  C     -134.985      73.943     242.589
  O     -130.517      78.276     241.867
  O     -131.595      76.622     240.241
  H     -132.012      73.873     247.170
  H     -130.770      76.854     239.770
  H     -135.841      70.403     243.329
  H     -135.425      73.524     240.546
  H     -134.726      74.980     242.413
  H     -135.167      74.228     245.805
  H     -132.759      72.859     245.253
  H     -131.996      74.603     243.776
  H     -133.018      76.578     245.899
  H     -133.422      77.996     243.844
  H     -131.694      77.725     244.203
  P     -129.678      74.125     245.194
  C     -129.852      72.853     247.425
  O     -129.976      72.773     246.007
  O     -128.316      74.704     245.409
  O     -129.869      73.676     243.668
  H     -129.085      73.940     243.151
  H     -130.073      71.899     247.857
  H     -130.538      73.582     247.802
  H     -128.853      73.137     247.680

 6  7  8  9  10  11  12  13  14  15  16  26  31  32  33  34  35 0
 6-311+G(2d,p)
 ****
 36  37 0
 6-311+G(2d,p)
 ****
 1  2  3  4  5  17  18  19  20  21  22  23  24  25 0
 3-21G
 ****
 27  28  29  30  38  39  40  41  42  43  44  45 0
 3-21G
 ****


