%nproc=1
%NoSave
%Mem=1900MB
#P OB98/GEN NMR

erre ene a

0 1
  C      107.515    -109.713     233.214
  O      108.199    -110.277     234.313
  H      108.187    -109.698     232.353
  H      107.217    -108.685     233.445
  H      106.633    -110.309     232.966
  P      107.383    -110.418     235.692
  C      109.439    -109.063     236.538
  O      108.442    -110.032     236.840
  C      110.736    -109.754     236.099
  O      111.416    -110.271     237.269
  C      110.509    -110.919     235.132
  O      111.486    -110.868     234.091
  C      110.708    -112.156     235.993
  O      111.122    -113.288     235.227
  C      111.717    -111.663     237.037
  N      111.637    -112.436     238.276
  C      112.611    -113.421     238.466
  O      113.477    -113.613     237.607
  N      112.558    -114.199     239.598
  C      111.578    -114.050     240.434
  N      111.566    -114.865     241.523
  C      110.502    -113.057     240.248
  C      110.595    -112.292     239.162
  O      107.218    -111.998     235.847
  O      106.098    -109.664     235.749
  H      111.993    -113.082     234.833
  H      106.552    -112.227     236.540
  H      109.693    -112.982     240.964
  H      109.844    -111.537     238.945
  H      112.741    -111.729     236.648
  H      109.759    -112.413     236.482
  H      109.518    -110.914     234.685
  H      111.402    -108.997     235.663
  H      112.319    -115.542     241.610
  H      109.629    -108.457     237.428
  H      110.838    -114.858     242.221
  H      109.079    -108.418     235.729
  P      110.949    -110.396     232.649
  C      111.882    -112.503     231.457
  O      111.883    -111.086     231.537
  O      111.352    -108.849     232.587
  O      109.484    -110.615     232.459
  H      110.581    -108.289     232.800
  H      112.545    -112.817     230.678
  H      110.892    -112.847     231.243
  H      112.209    -112.913     232.390

 6  7  8  9  10  11  12  13  14  15  16  26  30  31  32  33  35 0
 6-311+G(2d,p)
 ****
 37  38 0
 6-311+G(2d,p)
 ****
 1  2  3  4  5  17  18  19  20  21  22  23  24  25 0
 3-21G
 ****
 27  28  29  34  36  39  40  41  42  43  44  45  46 0
 3-21G
 ****


