%nproc=1
%NoSave
%Mem=1900MB
#P OB98/GEN NMR

erre ene a

0 1
  C       12.317    -147.969    -118.527
  O       12.832    -147.725    -117.231
  H       12.145    -147.007    -119.021
  H       11.370    -148.512    -118.475
  H       13.042    -148.538    -119.116
  P       12.907    -148.958    -116.204
  C       11.314    -149.573    -114.265
  O       11.417    -149.115    -115.614
  C        9.922    -150.138    -113.979
  O        9.650    -151.280    -114.823
  C        9.739    -150.654    -112.557
  O        9.774    -149.659    -111.561
  C        8.499    -151.524    -112.695
  O        7.290    -150.765    -112.641
  C        8.695    -152.108    -114.119
  N        9.108    -153.508    -114.094
  C        8.309    -154.367    -113.346
  O        7.319    -153.997    -112.712
  N        8.706    -155.679    -113.320
  C        9.822    -156.190    -113.914
  O       10.135    -157.374    -113.835
  C       10.651    -155.226    -114.660
  C       10.261    -153.946    -114.715
  O       13.969    -148.859    -115.149
  O       13.059    -150.240    -117.150
  H        6.564    -151.374    -112.879
  H       13.360    -151.030    -116.638
  H        8.131    -156.319    -112.795
  H       11.551    -155.595    -115.132
  H       10.855    -153.217    -115.261
  H        7.753    -152.043    -114.686
  H        8.441    -152.286    -111.914
  H       10.573    -151.334    -112.332
  H        9.182    -149.364    -114.221
  H       11.497    -148.716    -113.608
  H       12.078    -150.336    -114.080
  P        9.980    -149.962    -110.008
  C        8.600    -151.118    -108.106
  O        8.617    -150.570    -109.418
  O       10.690    -148.918    -109.206
  O       10.934    -151.271    -110.057
  H       11.532    -151.219    -109.282
  H        7.616    -151.474    -107.881
  H        8.876    -150.363    -107.400
  H        9.295    -151.930    -108.050

 6  7  8  9  10  11  12  13  14  15  16  26  31  32  33  34  35 0
 6-311+G(2d,p)
 ****
 36  37 0
 6-311+G(2d,p)
 ****
 1  2  3  4  5  17  18  19  20  21  22  23  24  25 0
 3-21G
 ****
 27  28  29  30  38  39  40  41  42  43  44  45 0
 3-21G
 ****


