%nproc=1
%NoSave
%Mem=1900MB
#P OB98/GEN NMR

erre ene a

0 1
  C     -860.754    1001.202     857.445
  O     -859.502    1001.535     858.075
  P     -858.125    1000.852     857.647
  C     -857.772     998.460     858.549
  O     -858.315     999.257     857.480
  C     -858.190     996.964     858.433
  O     -857.693     996.341     857.211
  C     -857.713     996.086     859.612
  O     -858.745     995.086     859.772
  C     -856.448     995.493     859.070
  O     -856.019     994.309     859.754
  C     -856.859     995.246     857.629
  N     -854.230     992.030     854.565
  C     -855.433     991.940     855.185
  N     -856.088     992.812     855.916
  C     -855.392     993.990     856.025
  C     -854.125     994.247     855.443
  C     -853.569     993.188     854.712
  N     -852.305     993.274     854.148
  N     -853.702     995.515     855.810
  C     -854.711     995.993     856.559
  N     -855.695     995.116     856.707
  O     -856.964    1001.220     858.492
  O     -857.882    1001.356     856.137
  H     -856.759     993.674     859.753
  H     -856.952    1001.628     856.036
  H     -855.938     990.972     855.023
  H     -854.661     996.995     857.007
  H     -857.464     994.303     857.512
  H     -855.610     996.219     859.140
  H     -857.588     996.650     860.543
  H     -859.283     996.941     858.330
  H     -858.077     998.839     859.487
  H     -851.915     992.454     853.698
  H     -851.722     994.093     854.315
  H     -856.655     998.531     858.470
  P     -859.385     994.744     861.196
  C     -857.473     993.395     862.260
  O     -858.143     994.619     862.246
  O     -860.306     993.581     861.204
  O     -860.106     996.090     861.643
  H     -860.775     995.891     862.347
  H     -858.076     992.634     862.796
  H     -856.518     993.514     862.760
  H     -857.271     993.015     861.234
  H     -861.540    1001.777     857.888
  H     -860.955    1000.160     857.580
  H     -860.697    1001.421     856.399

 3  4  5  6  7  8  9  10  11  12  22  25  29  30  31  32 0
 6-311+G(2d,p)
 ****
 33  36  37 0
 6-311+G(2d,p)
 ****
 1  2  13  14  15  16  17  18  19  20  21  23  24  26 0
 3-21G
 ****
 27  28  34  35  38  39  40  41  42  43  44  45  46  47  48 0
 3-21G
 ****


