%nproc=1
%NoSave
%Mem=1900MB
#P OB98/GEN NMR

erre ene a

0 1
  C       66.488     199.875     155.838
  O       67.692     199.690     155.082
  P       68.067     198.304     154.366
  C       68.389     195.822     154.992
  O       68.027     197.122     155.447
  C       69.467     195.190     155.880
  O       70.754     195.775     155.608
  C       69.248     195.370     157.377
  O       68.239     194.497     157.857
  C       70.647     195.087     157.915
  O       70.879     193.673     158.036
  C       71.540     195.694     156.814
  N       72.080     196.996     157.187
  C       73.125     196.994     158.116
  O       73.510     195.940     158.622
  N       73.692     198.197     158.469
  C       73.207     199.302     157.994
  N       73.814     200.460     158.372
  C       72.049     199.353     157.083
  C       71.543     198.173     156.724
  O       69.329     198.355     153.568
  O       66.819     197.977     153.415
  H       70.352     193.372     158.802
  H       67.135     197.484     152.634
  H       71.659     200.294     156.732
  H       70.696     198.119     156.050
  H       72.376     195.022     156.585
  H       70.814     195.527     158.903
  H       68.981     196.413     157.589
  H       69.524     194.123     155.629
  H       74.610     200.391     158.993
  H       68.772     195.910     153.968
  H       73.517     201.373     158.061
  H       67.494     195.191     154.977
  P       66.807     195.085     158.262
  C       65.522     195.472     160.451
  O       66.788     195.260     159.854
  O       65.628     194.371     157.687
  O       66.861     196.604     157.746
  H       65.962     196.881     157.487
  H       65.577     195.177     161.502
  H       64.747     194.880     159.955
  H       65.266     196.534     160.392
  H       66.456     200.875     156.218
  H       66.469     199.183     156.653
  H       65.641     199.706     155.207

 3  4  5  6  7  8  9  10  11  12  13  23  27  28  29  30  32 0
 6-311+G(2d,p)
 ****
 34  35 0
 6-311+G(2d,p)
 ****
 1  2  14  15  16  17  18  19  20  21  22  24  25  26 0
 3-21G
 ****
 31  33  36  37  38  39  40  41  42  43  44  45  46 0
 3-21G
 ****


