%nproc=1
%NoSave
%Mem=1900MB
#P OB98/GEN NMR

erre ene a

0 1
  C     -750.199     -22.933     -24.216
  O     -749.314     -22.355     -23.275
  H     -749.693     -22.998     -25.184
  H     -751.094     -22.312     -24.324
  H     -750.485     -23.942     -23.894
  P     -749.910     -22.072     -21.807
  C     -749.834     -19.569     -22.549
  O     -750.587     -20.618     -21.950
  C     -750.666     -18.291     -22.585
  O     -751.898     -18.504     -23.312
  C     -751.092     -17.770     -21.219
  O     -750.056     -17.096     -20.518
  C     -752.204     -16.818     -21.630
  O     -751.632     -15.624     -22.190
  C     -752.921     -17.673     -22.702
  N     -754.013     -18.489     -22.166
  C     -755.301     -17.969     -22.261
  O     -755.504     -16.861     -22.780
  N     -756.353     -18.682     -21.739
  C     -756.134     -19.832     -21.192
  N     -757.217     -20.498     -20.676
  C     -754.786     -20.432     -21.072
  C     -753.786     -19.719     -21.574
  O     -748.608     -21.762     -20.930
  O     -750.803     -23.127     -21.250
  H     -752.332     -15.207     -22.722
  H     -748.872     -21.429     -20.036
  H     -754.651     -21.395     -20.591
  H     -752.767     -20.092     -21.530
  H     -753.326     -17.025     -23.501
  H     -752.834     -16.511     -20.797
  H     -751.525     -18.571     -20.599
  H     -750.092     -17.536     -23.137
  H     -758.109     -20.043     -20.720
  H     -749.566     -19.874     -23.570
  H     -757.126     -21.328     -20.105
  H     -748.918     -19.391     -21.975
  P     -750.403     -16.513     -19.068
  C     -749.631     -14.081     -19.625
  O     -750.700     -14.941     -19.255
  O     -748.992     -16.533     -18.315
  O     -751.454     -17.277     -18.314
  H     -749.106     -16.719     -17.355
  H     -749.993     -13.077     -19.707
  H     -749.231     -14.394     -20.567
  H     -748.864     -14.124     -18.880

 6  7  8  9  10  11  12  13  14  15  16  26  30  31  32  33  35 0
 6-311+G(2d,p)
 ****
 37  38 0
 6-311+G(2d,p)
 ****
 1  2  3  4  5  17  18  19  20  21  22  23  24  25 0
 3-21G
 ****
 27  28  29  34  36  39  40  41  42  43  44  45  46 0
 3-21G
 ****


