%nproc=1
%NoSave
%Mem=1900MB
#P OB98/GEN NMR

erre ene a

0 1
  C     -132.577    -779.129    -273.533
  O     -131.540    -779.415    -272.619
  H     -132.650    -778.047    -273.651
  H     -133.527    -779.505    -273.148
  H     -132.374    -779.571    -274.512
  P     -131.020    -780.925    -272.481
  C     -132.605    -781.303    -270.481
  O     -132.202    -781.747    -271.766
  C     -133.562    -782.306    -269.834
  O     -132.828    -783.525    -269.511
  C     -134.211    -781.804    -268.531
  O     -135.505    -782.405    -268.438
  C     -133.278    -782.384    -267.483
  O     -133.885    -782.389    -266.207
  C     -132.972    -783.752    -268.096
  N     -131.786    -784.374    -267.510
  C     -132.006    -785.329    -266.525
  O     -133.129    -785.639    -266.125
  N     -130.891    -785.899    -265.975
  C     -129.605    -785.568    -266.272
  O     -128.636    -786.089    -265.726
  C     -129.428    -784.513    -267.291
  C     -130.513    -783.979    -267.859
  O     -129.677    -781.094    -271.858
  O     -131.057    -781.494    -273.980
  H     -134.371    -783.229    -266.064
  H     -130.364    -782.168    -274.101
  H     -131.032    -786.602    -265.272
  H     -128.418    -784.220    -267.535
  H     -130.418    -783.203    -268.606
  H     -133.816    -784.440    -267.950
  H     -132.365    -781.786    -267.406
  H     -134.292    -780.715    -268.483
  H     -134.325    -782.590    -270.572
  H     -133.102    -780.335    -270.596
  H     -131.715    -781.177    -269.844
  P     -136.844    -781.605    -268.787
  C     -137.754    -781.548    -266.380
  O     -137.313    -780.778    -267.491
  O     -137.926    -782.448    -269.401
  O     -136.382    -780.459    -269.816
  H     -137.122    -780.220    -270.401
  H     -138.039    -780.893    -265.583
  H     -136.961    -782.187    -266.051
  H     -138.594    -782.143    -266.670

 6  7  8  9  10  11  12  13  14  15  16  26  31  32  33  34  35 0
 6-311+G(2d,p)
 ****
 36  37 0
 6-311+G(2d,p)
 ****
 1  2  3  4  5  17  18  19  20  21  22  23  24  25 0
 3-21G
 ****
 27  28  29  30  38  39  40  41  42  43  44  45 0
 3-21G
 ****


