%nproc=1
%NoSave
%Mem=1900MB
#P OB98/GEN NMR

erre ene a

0 1
  C       50.923    -227.754     278.016
  O       52.211    -227.170     278.068
  H       50.406    -227.390     277.123
  H       50.346    -227.468     278.900
  H       51.004    -228.843     277.959
  P       53.138    -227.595     279.305
  C       52.938    -227.374     281.894
  O       52.363    -227.110     280.624
  C       52.222    -226.563     282.982
  O       52.655    -225.175     282.889
  C       50.690    -226.563     282.850
  O       50.134    -226.402     284.166
  C       50.452    -225.297     282.040
  O       49.094    -224.920     282.076
  C       51.464    -224.373     282.715
  N       50.014    -219.587     281.649
  C       49.533    -220.500     282.518
  N       49.979    -221.749     282.755
  C       51.052    -222.025     281.996
  C       51.662    -221.191     281.070
  C       51.097    -219.917     280.899
  N       51.579    -218.988     280.007
  N       52.740    -221.825     280.478
  C       52.780    -223.019     281.041
  N       51.775    -223.185     281.955
  O       54.377    -226.587     279.198
  O       53.576    -229.021     279.320
  H       48.765    -224.894     283.001
  H       55.111    -227.012     278.716
  H       48.670    -220.183     283.102
  H       53.500    -223.797     280.818
  H       51.129    -224.054     283.707
  H       50.707    -225.454     280.988
  H       50.292    -227.471     282.394
  H       52.540    -226.929     283.967
  H       53.997    -227.097     281.860
  H       52.851    -228.442     282.119
  H       51.104    -218.102     279.935
  H       52.371    -219.226     279.431
  P       49.120    -227.516     284.728
  C       46.620    -228.185     284.331
  O       47.737    -227.411     283.920
  O       48.715    -226.908     286.157
  O       49.687    -228.891     284.879
  H       48.483    -227.636     286.767
  H       45.792    -227.989     283.682
  H       46.356    -227.925     285.335
  H       46.870    -229.224     284.286

 6  7  8  9  10  11  12  13  14  15  25  28  32  33  34  35 0
 6-311+G(2d,p)
 ****
 36  37  40 0
 6-311+G(2d,p)
 ****
 1  2  3  4  5  16  17  18  19  20  21  22  23  24 0
 3-21G
 ****
 26  27  29  30  31  38  39 41  42  43  44  45  46  47  48 0
 3-21G
 ****


