%nproc=1
%NoSave
%Mem=1900MB
#P OB98/GEN NMR

erre ene a

0 1
  C       24.056     158.635      36.157
  O       24.954     158.113      37.116
  H       24.415     159.616      35.838
  H       23.061     158.748      36.596
  H       24.005     157.976      35.287
  P       24.615     156.658      37.701
  C       22.701     155.668      39.156
  O       23.328     156.836      38.641
  C       21.767     156.049      40.300
  O       22.539     156.557      41.413
  C       20.783     157.157      39.950
  O       19.685     156.685      39.191
  C       20.396     157.654      41.333
  O       19.367     156.843      41.912
  C       21.702     157.499      42.122
  N       24.706     160.225      45.220
  C       24.248     158.957      45.295
  N       23.459     158.298      44.419
  C       23.172     159.079      43.363
  C       23.570     160.387      43.147
  C       24.380     160.968      44.137
  N       24.828     162.266      44.075
  N       23.041     160.868      41.967
  C       22.342     159.866      41.473
  N       22.395     158.764      42.280
  O       25.809     156.397      38.734
  O       24.515     155.574      36.682
  H       19.673     155.918      41.839
  H       26.478     155.820      38.320
  H       24.543     158.401      46.179
  H       21.779     159.892      40.547
  H       21.534     157.094      43.127
  H       20.028     158.679      41.289
  H       21.301     157.966      39.417
  H       21.237     155.148      40.635
  H       23.467     154.980      39.530
  H       22.146     155.178      38.350
  H       25.347     162.639      44.853
  H       24.495     162.864      43.329
  P       19.227     157.555      37.924
  C       17.974     159.819      37.603
  O       18.307     158.746      38.474
  O       18.196     156.600      37.158
  O       20.342     157.994      37.036
  H       18.279     156.729      36.193
  H       17.359     160.523      38.124
  H       17.442     159.439      36.756
  H       18.870     160.303      37.274

 6  7  8  9  10  11  12  13  14  15  25  28  32  33  34  35 0
 6-311+G(2d,p)
 ****
 36  37  40 0
 6-311+G(2d,p)
 ****
 1  2  3  4  5  16  17  18  19  20  21  22  23  24 0
 3-21G
 ****
 26  27  29  30  31  38  39 41  42  43  44  45  46  47  48 0
 3-21G
 ****


