%nproc=1
%NoSave
%Mem=1900MB
#P OB98/GEN NMR

erre ene a

0 1
  C     -506.366    -782.853     874.458
  O     -507.109    -782.016     873.587
  P     -508.519    -782.576     873.055
  C     -509.968    -781.488     874.943
  O     -509.634    -781.545     873.567
  C     -510.246    -780.040     875.348
  O     -509.010    -779.310     875.478
  C     -511.105    -779.266     874.351
  O     -512.471    -779.556     874.549
  C     -510.726    -777.825     874.684
  O     -511.453    -777.356     875.839
  C     -509.227    -777.956     875.000
  N     -507.932    -774.521     871.510
  C     -508.978    -774.524     872.419
  N     -509.770    -773.424     872.425
  N     -509.231    -775.503     873.250
  C     -508.365    -776.539     873.120
  C     -507.302    -776.672     872.253
  C     -507.012    -775.554     871.377
  O     -506.048    -775.468     870.633
  N     -506.676    -777.871     872.400
  C     -507.336    -778.458     873.378
  N     -508.359    -777.690     873.860
  O     -508.753    -783.881     873.960
  O     -508.572    -782.875     871.592
  H     -511.185    -776.448     876.037
  H     -508.498    -784.688     873.477
  H     -507.778    -773.730     870.913
  H     -507.095    -779.439     873.780
  H     -508.911    -777.269     875.795
  H     -510.957    -777.134     873.868
  H     -509.651    -772.635     871.802
  H     -510.800    -779.500     873.323
  H     -510.545    -773.407     873.075
  H     -510.730    -780.053     876.336
  H     -509.135    -781.871     875.533
  H     -510.850    -782.120     875.122
  P     -513.456    -779.357     873.298
  C     -513.411    -781.712     872.194
  O     -514.125    -780.774     872.984
  O     -512.448    -779.128     872.066
  O     -514.410    -778.220     873.429
  H     -512.834    -778.476     871.442
  H     -513.697    -782.720     872.492
  H     -512.327    -781.595     872.312
  H     -513.665    -781.569     871.137
  H     -505.456    -782.362     874.734
  H     -506.139    -783.773     873.961
  H     -506.943    -783.055     875.336

 3  4  5  6  7  8  9  10  11  12  23  26  30  31 0
 6-311+G(2d,p)
 ****
 33  35  36  37  38 0
 6-311+G(2d,p)
 ****
 1  2  13  14  15  16  17  18  19  20  21  22  24  25 0
 3-21G
 ****
 27  28  29  32  34  39  40  41  42  43  44  45  46  47  48  49 0
 3-21G
 ****


