%nproc=1
%NoSave
%Mem=1900MB
#P OB98/GEN NMR

erre ene a

0 1
  C       59.538     -44.695    -147.827
  O       58.727     -45.675    -147.212
  H       60.116     -45.167    -148.624
  H       60.229     -44.272    -147.094
  H       58.920     -43.903    -148.258
  P       57.724     -45.172    -146.065
  C       56.278     -43.225    -146.983
  O       56.411     -44.629    -146.818
  C       54.912     -42.751    -146.489
  O       54.982     -41.320    -146.211
  C       53.767     -42.968    -147.490
  O       52.581     -43.276    -146.747
  C       53.593     -41.591    -148.109
  O       52.304     -41.411    -148.692
  C       53.868     -40.711    -146.891
  N       52.648     -35.925    -145.930
  C       52.214     -37.098    -145.342
  N       51.313     -36.979    -144.342
  N       52.625     -38.283    -145.702
  C       53.550     -38.252    -146.692
  C       54.058     -37.163    -147.359
  C       53.574     -35.855    -146.968
  O       53.907     -34.784    -147.464
  N       54.958     -37.549    -148.321
  C       54.994     -38.866    -148.234
  N       54.156     -39.339    -147.260
  O       58.436     -43.838    -145.539
  O       57.472     -46.144    -144.963
  H       52.096     -42.213    -149.214
  H       59.002     -44.039    -144.770
  H       52.289     -35.039    -145.623
  H       55.599     -39.519    -148.847
  H       53.017     -40.681    -146.198
  H       54.347     -41.428    -148.889
  H       50.987     -36.097    -143.980
  H       53.956     -43.751    -148.230
  H       51.016     -37.824    -143.870
  H       54.695     -43.246    -145.535
  H       56.379     -42.981    -148.046
  H       57.073     -42.719    -146.424
  P       52.008     -44.770    -146.829
  C       52.794     -45.974    -144.663
  O       51.750     -45.287    -145.335
  O       53.290     -45.618    -147.279
  O       50.872     -44.940    -147.782
  H       53.007     -46.411    -147.772
  H       52.466     -46.251    -143.683
  H       53.649     -45.336    -144.586
  H       53.054     -46.854    -145.214

 6  7  8  9  10  11  12  13  14  15  26  29  33  34 0
 6-311+G(2d,p)
 ****
 36  38  39  40  41 0
 6-311+G(2d,p)
 ****
 1  2  3  4  5  16  17  18  19  20  21  22  23  24  25 0
 3-21G
 ****
 27  28  30  31  32  35  37  42  43  44  45  46  47 0
 3-21G
 ****
 48  49 0
 3-21G
 ****


