%nproc=1
%NoSave
%Mem=1900MB
#P OB98/GEN NMR

erre ene a

0 1
  C       -8.906    -377.492    -323.283
  O       -7.822    -377.040    -324.065
  H       -8.554    -378.286    -322.617
  H       -9.685    -377.908    -323.932
  H       -9.325    -376.683    -322.676
  P       -7.987    -375.694    -324.926
  C       -6.927    -377.084    -326.832
  O       -6.972    -375.831    -326.164
  C       -6.229    -376.934    -328.186
  O       -7.074    -376.110    -329.043
  C       -4.851    -376.251    -328.097
  O       -3.998    -376.819    -329.104
  C       -5.198    -374.820    -328.451
  O       -4.062    -374.094    -328.871
  C       -6.255    -375.030    -329.533
  N       -7.013    -373.809    -329.787
  C       -6.491    -372.928    -330.716
  O       -5.428    -373.110    -331.323
  N       -7.180    -371.756    -330.902
  C       -8.264    -371.353    -330.170
  O       -8.795    -370.262    -330.311
  C       -8.746    -372.307    -329.152
  C       -8.107    -373.474    -329.012
  O       -7.882    -374.413    -324.167
  O       -9.410    -375.860    -325.646
  H       -3.282    -374.353    -328.343
  H       -9.762    -374.987    -325.919
  H       -6.822    -371.112    -331.584
  H       -9.590    -372.015    -328.545
  H       -8.427    -374.198    -328.269
  H       -5.791    -375.364    -330.471
  H       -5.616    -374.306    -327.585
  H       -4.383    -376.359    -327.106
  H       -6.159    -377.921    -328.662
  H       -7.961    -377.425    -326.974
  H       -6.396    -377.814    -326.210
  P       -2.549    -377.417    -328.744
  C       -1.185    -376.716    -330.806
  O       -1.754    -377.811    -330.085
  O       -2.576    -378.504    -327.712
  O       -1.731    -376.162    -328.178
  H       -1.254    -376.420    -327.372
  H       -0.682    -377.084    -331.675
  H       -0.486    -376.202    -330.180
  H       -1.961    -376.042    -331.102

 6  7  8  9  10  11  12  13  14  15  16  26  31  32  33  34  35 0
 6-311+G(2d,p)
 ****
 36  37 0
 6-311+G(2d,p)
 ****
 1  2  3  4  5  17  18  19  20  21  22  23  24  25 0
 3-21G
 ****
 27  28  29  30  38  39  40  41  42  43  44  45 0
 3-21G
 ****


