%nproc=1
%NoSave
%Mem=1900MB
#P OB98/GEN NMR

erre ene a

0 1
  C       74.979    -212.440     -38.661
  O       75.041    -211.077     -38.303
  H       74.500    -212.991     -37.845
  H       75.982    -212.848     -38.811
  H       74.383    -212.570     -39.570
  P       75.870    -210.061     -39.234
  C       77.797    -209.972     -37.541
  O       77.419    -210.333     -38.863
  C       79.136    -210.605     -37.149
  O       79.022    -212.053     -37.200
  C       80.304    -210.196     -38.055
  O       81.430    -209.842     -37.247
  C       80.602    -211.461     -38.850
  O       81.943    -211.492     -39.333
  C       80.221    -212.546     -37.833
  N       80.013    -213.854     -38.446
  C       81.133    -214.460     -39.030
  O       82.216    -213.871     -39.043
  N       80.991    -215.690     -39.616
  C       79.823    -216.249     -39.667
  N       79.747    -217.468     -40.274
  C       78.602    -215.631     -39.107
  C       78.771    -214.446     -38.508
  O       75.443    -208.633     -39.139
  O       75.744    -210.674     -40.709
  H       82.072    -212.330     -39.834
  H       75.943    -209.969     -41.375
  H       77.648    -216.130     -39.181
  H       77.933    -213.920     -38.059
  H       80.999    -212.647     -37.062
  H       79.929    -211.513     -39.717
  H       80.070    -209.360     -38.707
  H       79.338    -210.353     -36.095
  H       80.606    -217.859     -40.645
  H       77.006    -210.291     -36.851
  H       78.891    -217.994     -40.378
  H       77.894    -208.881     -37.497
  P       81.778    -208.273     -37.169
  C       82.814    -208.189     -39.545
  O       81.808    -207.699     -38.669
  O       83.315    -208.263     -36.721
  O       80.916    -207.514     -36.212
  H       83.386    -208.079     -35.766
  H       82.712    -207.722     -40.502
  H       82.708    -209.248     -39.652
  H       83.779    -207.966     -39.140

 6  7  8  9  10  11  12  13  14  15  16  26  30  31  32  33  35 0
 6-311+G(2d,p)
 ****
 37  38 0
 6-311+G(2d,p)
 ****
 1  2  3  4  5  17  18  19  20  21  22  23  24  25 0
 3-21G
 ****
 27  28  29  34  36  39  40  41  42  43  44  45  46 0
 3-21G
 ****


