%nproc=1
%NoSave
%Mem=1900MB
#P OB98/GEN NMR

erre ene a

0 1
  C       36.748    -337.459     -63.109
  O       37.899    -338.218     -62.808
  H       36.110    -338.043     -63.775
  H       37.040    -336.537     -63.620
  H       36.185    -337.217     -62.205
  P       38.825    -337.762     -61.585
  C       40.469    -336.450     -63.080
  O       39.534    -336.388     -62.013
  C       41.898    -336.204     -62.579
  O       42.338    -337.337     -61.795
  C       42.862    -336.080     -63.762
  O       43.981    -335.250     -63.457
  C       43.341    -337.509     -63.959
  O       44.584    -337.591     -64.652
  C       43.397    -337.998     -62.513
  N       45.292    -342.597     -63.618
  C       45.694    -341.355     -64.069
  N       46.722    -341.339     -64.946
  N       45.129    -340.235     -63.703
  C       44.065    -340.408     -62.882
  C       43.557    -341.588     -62.390
  C       44.216    -342.819     -62.767
  O       43.891    -343.949     -62.414
  N       42.455    -341.367     -61.598
  C       42.294    -340.061     -61.619
  N       43.254    -339.432     -62.373
  O       40.041    -338.805     -61.618
  O       38.161    -337.737     -60.242
  H       44.453    -337.203     -65.537
  H       40.445    -338.883     -60.736
  H       45.771    -343.426     -63.918
  H       41.508    -339.522     -61.105
  H       44.350    -337.715     -62.045
  H       42.598    -338.040     -64.560
  H       47.070    -342.177     -65.386
  H       42.370    -335.695     -64.655
  H       46.835    -340.487     -65.501
  H       41.921    -335.330     -61.919
  H       40.188    -335.676     -63.802
  H       40.400    -337.413     -63.589
  P       44.200    -333.942     -64.356
  C       45.733    -334.819     -66.298
  O       44.444    -334.423     -65.866
  O       45.626    -333.396     -63.884
  O       43.125    -332.920     -64.202
  H       45.515    -332.605     -63.324
  H       45.692    -335.103     -67.329
  H       46.066    -335.650     -65.712
  H       46.415    -334.003     -66.180

 6  7  8  9  10  11  12  13  14  15  26  29  33  34 0
 6-311+G(2d,p)
 ****
 36  38  39  40  41 0
 6-311+G(2d,p)
 ****
 1  2  3  4  5  16  17  18  19  20  21  22  23  24  25 0
 3-21G
 ****
 27  28  30  31  32  35  37  42  43  44  45  46  47 0
 3-21G
 ****
 48  49 0
 3-21G
 ****


