%nproc=1
%NoSave
%Mem=1900MB
#P OB98/GEN NMR

erre ene a

0 1
  C      644.939    -307.272     215.377
  O      645.880    -307.695     214.415
  H      644.237    -308.089     215.561
  H      644.380    -306.412     214.993
  H      645.422    -307.005     216.320
  P      647.191    -306.804     214.171
  C      646.421    -306.008     211.840
  O      647.399    -306.730     212.579
  C      646.311    -306.549     210.407
  O      646.073    -307.986     210.463
  C      645.171    -305.919     209.589
  O      645.584    -305.912     208.214
  C      644.058    -306.930     209.800
  O      643.035    -306.781     208.831
  C      644.847    -308.241     209.755
  N      644.100    -309.362     210.334
  C      643.557    -310.276     209.434
  O      643.652    -310.161     208.208
  N      642.862    -311.316     209.984
  C      642.604    -311.492     211.316
  O      641.942    -312.428     211.754
  C      643.164    -310.467     212.215
  C      643.882    -309.466     211.690
  O      648.403    -307.211     214.938
  O      646.729    -305.313     214.530
  H      643.429    -306.725     207.932
  H      647.485    -304.798     214.875
  H      642.470    -311.994     209.347
  H      642.965    -310.566     213.274
  H      644.306    -308.702     212.327
  H      645.103    -308.509     208.715
  H      643.591    -306.799     210.785
  H      644.902    -304.913     209.917
  H      647.276    -306.406     209.902
  H      646.724    -304.955     211.816
  H      645.448    -306.087     212.335
  P      645.627    -304.561     207.350
  C      645.419    -305.802     205.089
  O      646.193    -304.897     205.883
  O      646.318    -303.418     208.026
  O      644.089    -304.202     207.074
  H      643.987    -303.234     206.968
  H      645.897    -305.944     204.142
  H      644.440    -305.396     204.938
  H      645.341    -306.742     205.594

 6  7  8  9  10  11  12  13  14  15  16  26  31  32  33  34  35 0
 6-311+G(2d,p)
 ****
 36  37 0
 6-311+G(2d,p)
 ****
 1  2  3  4  5  17  18  19  20  21  22  23  24  25 0
 3-21G
 ****
 27  28  29  30  38  39  40  41  42  43  44  45 0
 3-21G
 ****


