%nproc=1
%NoSave
%Mem=1900MB
#P OB98/GEN NMR

erre ene a

0 1
  C      950.452    -893.650    -556.944
  O      951.365    -893.290    -555.902
  P      950.753    -892.460    -554.667
  C      951.243    -893.980    -552.613
  O      950.271    -893.510    -553.542
  C      950.716    -895.170    -551.792
  O      949.483    -894.800    -551.148
  C      950.429    -896.430    -552.621
  O      950.796    -897.570    -551.842
  C      948.919    -896.430    -552.757
  O      948.401    -897.740    -553.025
  C      948.525    -895.840    -551.404
  N      943.714    -896.820    -550.163
  C      944.859    -897.550    -549.914
  N      944.678    -898.720    -549.261
  N      946.050    -897.170    -550.269
  C      946.074    -895.960    -550.878
  C      945.020    -895.130    -551.181
  C      943.700    -895.590    -550.814
  O      942.639    -895.000    -551.044
  N      945.435    -893.980    -551.806
  C      946.753    -894.120    -551.905
  N      947.188    -895.310    -551.356
  O      949.378    -891.890    -555.263
  O      951.630    -891.370    -554.177
  H      947.528    -897.620    -553.426
  H      949.360    -890.920    -555.185
  H      942.814    -897.160    -549.883
  H      947.421    -893.420    -552.361
  H      948.621    -896.590    -550.603
  H      948.631    -895.780    -553.586
  H      943.802    -899.040    -548.905
  H      950.940    -896.470    -553.593
  H      945.518    -899.260    -549.043
  H      951.446    -895.390    -551.012
  H      951.504    -893.170    -551.927
  H      952.143    -894.260    -553.161
  P      951.765    -898.650    -552.538
  C      953.883    -897.610    -551.436
  O      953.201    -897.940    -552.639
  O      951.255    -898.670    -554.058
  O      951.746    -900.000    -551.912
  H      951.458    -899.530    -554.470
  H      953.424    -898.050    -550.562
  H      953.889    -896.520    -551.316
  H      954.922    -897.960    -551.509
  H      950.974    -894.195    -557.703
  H      950.028    -892.764    -557.369
  H      949.672    -894.260    -556.539

 3  4  5  6  7  8  9  10  11  12  23  26  30  31  33  0
 6-311+G(2d,p)
 ****
 35  36  37  38 0
 6-311+G(2d,p)
 ****
 1  2  13  14  15  16  17  18  19  20  21  22  24  25  27  28  29 0
 3-21G
 ****
 32  34  39  40  41  42  43  44  45  46  47  48  49 0
 3-21G
 ****


