%nproc=1
%NoSave
%Mem=1900MB
#P OB98/GEN NMR

erre ene a

0 1
  C      310.616     -18.589      90.425
  O      310.829     -19.519      91.493
  P      311.902     -19.138      92.622
  C      314.463     -19.430      92.993
  O      313.361     -19.567      92.108
  C      315.720     -20.060      92.387
  O      315.686     -21.500      92.462
  C      315.916     -19.740      90.913
  O      316.514     -18.463      90.733
  C      316.882     -20.837      90.496
  O      318.221     -20.490      90.896
  C      316.381     -22.035      91.313
  N      316.060     -25.948      88.019
  C      317.121     -25.285      88.531
  N      317.125     -24.242      89.389
  C      315.873     -23.902      89.729
  C      314.693     -24.483      89.287
  C      314.816     -25.556      88.389
  N      313.733     -26.230      87.874
  N      313.600     -23.855      89.844
  C      314.106     -22.921      90.621
  N      315.475     -22.904      90.578
  O      311.598     -20.197      93.784
  O      311.787     -17.735      93.117
  H      318.793     -21.246      90.665
  H      311.753     -19.787      94.654
  H      318.096     -25.640      88.212
  H      313.530     -22.240      91.232
  H      317.203     -22.661      91.681
  H      316.903     -20.991      89.414
  H      314.971     -19.838      90.361
  H      316.587     -19.705      92.960
  H      314.233     -19.901      93.955
  H      313.902     -27.009      87.257
  H      312.807     -25.955      88.164
  H      314.621     -18.366      93.202
  P      315.695     -17.382      89.876
  C      315.251     -17.053      87.335
  O      315.917     -17.792      88.341
  O      316.564     -16.051      90.052
  O      314.281     -17.194      90.308
  H      315.985     -15.264      90.005
  H      315.735     -17.250      86.377
  H      315.300     -15.978      87.536
  H      314.207     -17.368      87.277
  H      309.878     -18.978      89.755
  H      311.534     -18.437      89.896
  H      310.277     -17.657      90.826

 3  4  5  6  7  8  9  10  11  12  22  25  29  30  31  32 0
 6-311+G(2d,p)
 ****
 33  36  37 0
 6-311+G(2d,p)
 ****
 1  2  13  14  15  16  17  18  19  20  21  23  24  26 0
 3-21G
 ****
 27  28  34  35  38  39  40  41  42  43  44  45  46  47  48 0
 3-21G
 ****


