%nproc=1
%NoSave
%Mem=1900MB
#P OB98/GEN NMR

erre ene a

0 1
  C       64.854     302.618     134.843
  O       65.451     303.863     135.229
  P       65.915     304.194     136.731
  C       68.162     304.801     135.597
  O       67.252     305.079     136.655
  C       69.610     304.993     136.059
  O       69.859     306.386     136.365
  C       69.984     304.260     137.339
  O       70.126     302.865     137.143
  C       71.278     304.978     137.726
  O       72.406     304.422     137.037
  C       71.015     306.413     137.234
  N       70.828     307.361     138.322
  C       71.975     308.007     138.794
  O       73.083     307.709     138.348
  N       71.834     308.965     139.766
  C       70.670     309.179     140.299
  N       70.589     310.153     141.246
  C       69.462     308.420     139.924
  C       69.611     307.540     138.939
  O       66.041     302.989     137.603
  O       64.813     305.207     137.299
  H       64.771     305.132     138.271
  H       72.514     303.506     137.365
  H       68.520     308.602     140.421
  H       68.769     306.950     138.591
  H       71.844     306.754     136.600
  H       71.486     304.903     138.798
  H       69.220     304.452     138.105
  H       70.272     304.692     135.239
  H       71.434     310.660     141.470
  H       67.958     305.496     134.775
  H       69.727     310.412     141.704
  H       67.997     303.780     135.238
  P       69.247     301.905     138.079
  C       69.945     299.978     136.485
  O       69.727     300.399     137.819
  O       67.791     301.965     137.418
  O       69.209     302.313     139.518
  H       67.112     301.974     138.119
  H       70.687     299.177     136.490
  H       70.305     300.796     135.858
  H       69.010     299.589     136.075
  H       64.634     302.638     133.796
  H       63.950     302.470     135.395
  H       65.533     301.817     135.050

 3  4  5  6  7  8  9  10  11  12  13  24  27  28  29  30  32 0
 6-311+G(2d,p)
 ****
 34  35 0
 6-311+G(2d,p)
 ****
 1  2  14  15  16  17  18  19  20  21  22  23  25  26 0
 3-21G
 ****
 31  33  36  37  38  39  40  41  42  43  44  45  46 0
 3-21G
 ****


