%nproc=1
%NoSave
%Mem=1900MB
#P OB98/GEN NMR

erre ene a

0 1
  C     -300.586     327.089    -262.648
  O     -301.327     325.959    -262.236
  H     -300.382     327.038    -263.722
  H     -301.178     327.986    -262.447
  H     -299.647     327.153    -262.093
  P     -300.628     324.526    -262.438
  C     -302.820     323.913    -263.695
  O     -301.821     323.503    -262.772
  C     -303.465     322.688    -264.330
  O     -302.514     322.004    -265.177
  C     -303.952     321.642    -263.325
  O     -305.214     321.976    -262.769
  C     -304.049     320.422    -264.226
  O     -305.240     320.500    -265.026
  C     -302.801     320.575    -265.102
  N     -300.394     316.070    -264.802
  C     -301.563     316.433    -265.377
  N     -302.139     317.655    -265.409
  C     -301.374     318.552    -264.767
  C     -300.166     318.333    -264.124
  C     -299.668     317.017    -264.168
  N     -298.486     316.642    -263.567
  N     -299.702     319.496    -263.542
  C     -300.599     320.411    -263.856
  N     -301.632     319.888    -264.583
  O     -300.192     324.106    -260.956
  O     -299.488     324.491    -263.401
  H     -305.283     321.408    -265.380
  H     -299.489     323.429    -260.990
  H     -302.107     315.637    -265.880
  H     -300.543     321.457    -263.582
  H     -302.965     320.226    -266.131
  H     -304.098     319.484    -263.666
  H     -303.205     321.459    -262.545
  H     -304.295     323.033    -264.964
  H     -302.361     324.528    -264.477
  H     -298.309     315.649    -263.501
  H     -298.017     317.304    -262.965
  H     -303.571     324.515    -263.170
  P     -305.263     322.306    -261.199
  C     -307.570     321.470    -260.338
  O     -306.804     322.554    -260.859
  O     -304.614     323.765    -261.112
  O     -304.552     321.318    -260.331
  H     -304.217     323.921    -260.242
  H     -308.575     321.794    -260.164
  H     -307.138     321.138    -259.417
  H     -307.572     320.664    -261.042

 6  7  8  9  10  11  12  13  14  15  25  28  32  33  34  35 0
 6-311+G(2d,p)
 ****
 36  39  40 0
 6-311+G(2d,p)
 ****
 1  2  3  4  5  16  17  18  19  20  21  22  23  24 0
 3-21G
 ****
 26  27  29  30  31  37  38  41  42  43  44  45  46  47 0
 3-21G
 ****
 48 0
 3-21G
 ****


