%nproc=1
%NoSave
%Mem=1900MB
#P OB98/GEN NMR

erre ene a

0 1
  C      383.860    -518.606    -773.699
  O      383.287    -517.987    -774.822
  P      381.741    -517.550    -774.836
  C      380.940    -518.121    -777.232
  O      381.422    -517.101    -776.343
  C      380.238    -517.487    -778.445
  O      379.068    -516.772    -778.038
  C      381.107    -516.500    -779.212
  O      382.068    -517.169    -780.008
  C      380.049    -515.725    -780.001
  O      379.669    -516.441    -781.186
  C      378.865    -515.695    -778.979
  N      378.755    -514.411    -778.320
  C      378.251    -513.347    -779.099
  O      377.967    -513.543    -780.292
  N      378.108    -512.089    -778.537
  C      378.486    -511.919    -777.312
  N      378.340    -510.658    -776.789
  C      379.045    -512.984    -776.440
  C      379.155    -514.185    -777.022
  O      381.341    -516.570    -773.778
  O      380.962    -518.960    -774.727
  H      379.295    -517.295    -780.868
  H      381.024    -519.323    -773.796
  H      379.345    -512.786    -775.432
  H      379.561    -515.049    -776.452
  H      377.909    -515.906    -779.502
  H      380.402    -514.729    -780.281
  H      381.607    -515.827    -778.493
  H      379.933    -518.319    -779.114
  H      377.991    -509.952    -777.429
  H      380.216    -518.714    -776.672
  H      378.633    -510.396    -775.858
  H      381.772    -518.756    -777.522
  P      383.529    -517.471    -779.416
  C      384.496    -516.376    -781.542
  O      384.552    -517.503    -780.648
  O      383.616    -518.654    -778.506
  O      383.925    -516.115    -778.643
  H      384.317    -516.344    -777.796
  H      385.423    -516.352    -782.127
  H      384.370    -515.446    -780.997
  H      383.641    -516.515    -782.240
  H      384.891    -518.814    -773.894
  H      383.344    -519.521    -773.494
  H      383.781    -517.955    -772.854

 3  4  5  6  7  8  9  10  11  12  13  23  27  28  29  30  32 0
 6-311+G(2d,p)
 ****
 34  35 0
 6-311+G(2d,p)
 ****
 1  2  14  15  16  17  18  19  20  21  22  24  25  26 0
 3-21G
 ****
 31  33  36  37  38  39  40  41  42  43  44  45  46 0
 3-21G
 ****


