%nproc=1
%NoSave
%Mem=1900MB
#P OB98/GEN NMR

erre ene a

0 1
  C      250.132    -361.550    1022.267
  O      249.795    -360.282    1022.835
  P      249.028    -360.269    1024.256
  C      250.276    -358.343    1025.424
  O      250.061    -359.750    1025.372
  C      250.072    -357.827    1026.873
  O      248.672    -357.722    1027.197
  C      250.660    -358.731    1027.921
  O      252.082    -358.618    1027.957
  C      249.940    -358.259    1029.177
  O      250.570    -357.072    1029.710
  C      248.542    -357.892    1028.626
  N      247.528    -358.886    1028.945
  C      247.285    -359.083    1030.314
  O      247.930    -358.471    1031.153
  N      246.305    -359.991    1030.685
  C      245.650    -360.634    1029.771
  N      244.713    -361.522    1030.195
  C      245.892    -360.472    1028.324
  C      246.838    -359.579    1027.998
  O      248.271    -361.510    1024.599
  O      248.038    -359.002    1024.095
  H      250.047    -356.806    1030.486
  H      247.241    -359.176    1024.644
  H      245.316    -361.017    1027.597
  H      247.073    -359.397    1026.948
  H      248.215    -356.929    1029.027
  H      249.945    -359.011    1029.968
  H      250.385    -359.779    1027.723
  H      250.516    -356.833    1026.934
  H      244.574    -361.616    1031.188
  H      249.597    -357.840    1024.752
  H      244.099    -362.030    1029.560
  H      251.291    -358.132    1025.091
  P      252.919    -359.420    1026.834
  C      254.275    -357.378    1025.976
  O      253.310    -358.390    1025.688
  O      251.800    -360.355    1026.152
  O      254.046    -360.235    1027.373
  H      252.207    -361.197    1025.878
  H      254.644    -356.980    1025.016
  H      255.110    -357.782    1026.541
  H      253.804    -356.571    1026.546
  H      250.632    -361.401    1021.333
  H      249.239    -362.118    1022.107
  H      250.777    -362.081    1022.936

 3  4  5  6  7  8  9  10  11  12  13  23  27  28  29  30  32 0
 6-311+G(2d,p)
 ****
 34  35 0
 6-311+G(2d,p)
 ****
 1  2  14  15  16  17  18  19  20  21  22  24  25  26 0
 3-21G
 ****
 31  33  36  37  38  39  40  41  42  43  44  45  46 0
 3-21G
 ****


