%nproc=1
%NoSave
%Mem=1900MB
#P OB98/GEN NMR

erre ene a

0 1
  C     -299.078     195.947    -186.818
  O     -298.582     195.977    -185.495
  P     -297.476     194.932    -184.985
  C     -299.074     194.273    -183.082
  O     -297.767     194.720    -183.422
  C     -299.527     194.858    -181.746
  O     -298.884     194.142    -180.654
  C     -299.227     196.353    -181.563
  O     -300.295     196.891    -180.778
  C     -297.943     196.323    -180.754
  O     -297.689     197.556    -180.090
  C     -298.196     195.118    -179.844
  N     -296.961     194.589    -179.272
  C     -296.812     194.693    -177.885
  O     -297.667     195.277    -177.218
  N     -295.684     194.188    -177.302
  C     -294.737     193.706    -178.048
  N     -293.639     193.213    -177.417
  C     -294.797     193.695    -179.523
  C     -295.930     194.131    -180.061
  O     -296.070     195.288    -185.323
  O     -297.948     193.543    -185.621
  H     -297.433     198.228    -180.759
  H     -297.713     193.508    -186.583
  H     -293.958     193.337    -180.104
  H     -296.066     194.160    -181.138
  H     -298.874     195.391    -179.017
  H     -297.093     196.126    -181.415
  H     -299.124     196.896    -182.501
  H     -300.614     194.682    -181.649
  H     -293.644     193.223    -176.402
  H     -299.049     193.184    -183.006
  H     -292.884     192.744    -177.894
  H     -299.780     194.536    -183.881
  P     -301.073     198.221    -181.230
  C     -300.830     199.103    -178.840
  O     -301.726     198.852    -179.911
  O     -302.024     198.043    -182.372
  O     -299.908     199.255    -181.595
  H     -300.276     199.995    -182.110
  H     -301.308     199.780    -178.120
  H     -299.909     199.577    -179.196
  H     -300.587     198.165    -178.340
  H     -299.802     196.725    -186.945
  H     -299.537     194.999    -187.005
  H     -298.271     196.095    -187.505

 3  4  5  6  7  8  9  10  11  12  13  23  27  28  29  30  32 0
 6-311+G(2d,p)
 ****
 34  35 0
 6-311+G(2d,p)
 ****
 1  2  14  15  16  17  18  19  20  21  22  24  25  26 0
 3-21G
 ****
 31  33  36  37  38  39  40  41  42  43  44  45  46 0
 3-21G
 ****


