%nproc=1
%NoSave
%Mem=1900MB
#P OB98/GEN NMR

erre ene a

0 1
  C      506.371     229.825      91.962
  O      507.082     228.761      91.361
  H      506.059     229.520      92.971
  H      505.479     230.052      91.371
  H      507.001     230.713      92.046
  P      507.806     229.076      89.962
  C      510.220     229.034      90.922
  O      509.186     229.812      90.320
  C      511.294     228.689      89.884
  O      511.971     229.896      89.445
  C      512.383     227.756      90.399
  O      511.975     226.389      90.337
  C      513.492     228.045      89.395
  O      513.206     227.369      88.150
  C      513.366     229.563      89.222
  N      517.980     231.510      90.008
  C      517.505     230.757      88.950
  N      518.392     230.468      87.966
  N      516.278     230.316      88.864
  C      515.511     230.669      89.925
  C      515.861     231.415      91.027
  C      517.225     231.906      91.102
  O      517.692     232.598      92.004
  N      514.807     231.570      91.889
  C      513.826     230.906      91.318
  N      514.201     230.334      90.133
  O      506.916     230.259      89.343
  O      507.911     227.926      89.022
  H      513.111     226.421      88.353
  H      506.873     230.145      88.372
  H      518.945     231.822      90.025
  H      512.828     230.814      91.726
  H      513.624     229.886      88.203
  H      514.465     227.690      89.735
  H      519.359     230.743      87.996
  H      512.719     228.038      91.405
  H      518.055     229.941      87.170
  H      510.790     228.267      89.008
  H      509.794     228.110      91.313
  H      510.663     229.608      91.746
  P      512.545     225.399      91.466
  C      510.099     225.130      92.295
  O      511.457     225.403      92.640
  O      513.767     226.232      92.093
  O      512.971     224.057      90.966
  H      514.403     225.619      92.510
  H      509.493     225.167      93.176
  H      510.031     224.156      91.856
  H      509.755     225.862      91.594

 6  7  8  9  10  11  12  13  14  15  26  29  33  34 0
 6-311+G(2d,p)
 ****
 36  38  39  40  41 0
 6-311+G(2d,p)
 ****
 1  2  3  4  5  16  17  18  19  20  21  22  23  24  25 0
 3-21G
 ****
 27  28  30  31  32  35  37  42  43  44  45  46  47 0
 3-21G
 ****
 48  49 0
 3-21G
 ****


