%nproc=1
%NoSave
%Mem=1900MB
#P OB98/GEN NMR

erre ene a

0 1
  C      334.635     140.735     -85.509
  O      334.087     141.877     -84.885
  H      334.412     140.785     -86.580
  H      334.186     139.823     -85.108
  H      335.719     140.710     -85.379
  P      334.099     141.967     -83.281
  C      334.835     144.424     -83.429
  O      333.833     143.526     -82.956
  C      334.527     145.866     -83.024
  O      333.244     146.265     -83.575
  C      334.463     146.087     -81.506
  O      335.212     147.259     -81.164
  C      332.982     146.304     -81.234
  O      332.757     147.053     -80.042
  C      332.542     146.980     -82.538
  N      331.097     146.938     -82.743
  C      330.338     147.851     -82.000
  O      330.888     148.614     -81.205
  N      328.976     147.855     -82.152
  C      328.410     146.991     -82.939
  N      327.051     147.041     -83.041
  C      329.168     145.980     -83.704
  C      330.492     146.012     -83.567
  O      335.310     141.389     -82.630
  O      332.733     141.270     -82.827
  H      331.789     147.235     -79.969
  H      332.802     140.999     -81.879
  H      328.650     145.274     -84.340
  H      331.135     145.318     -84.099
  H      332.865     148.028     -82.567
  H      332.479     145.337     -81.130
  H      334.852     145.252     -80.933
  H      335.273     146.519     -83.487
  H      326.568     147.749     -82.494
  H      334.893     144.339     -84.519
  H      326.508     146.415     -83.617
  H      335.793     144.127     -82.992
  P      336.647     147.003     -80.486
  C      337.953     148.575     -82.086
  O      337.555     148.307     -80.748
  O      337.300     145.884     -81.429
  O      336.575     146.558     -79.067
  H      337.219     145.006     -81.018
  H      338.547     149.465     -82.110
  H      337.084     148.709     -82.696
  H      338.527     147.753     -82.459

 6  7  8  9  10  11  12  13  14  15  16  26  30  31  32  33  35 0
 6-311+G(2d,p)
 ****
 37  38 0
 6-311+G(2d,p)
 ****
 1  2  3  4  5  17  18  19  20  21  22  23  24  25 0
 3-21G
 ****
 27  28  29  34  36  39  40  41  42  43  44  45  46 0
 3-21G
 ****


