%nproc=1
%NoSave
%Mem=1900MB
#P OB98/GEN NMR

erre ene a

0 1
  C     -315.244      79.186    -332.796
  O     -314.423      79.764    -333.789
  H     -314.919      79.547    -331.815
  H     -315.149      78.096    -332.814
  H     -316.290      79.471    -332.947
  P     -314.764      79.390    -335.316
  C     -316.305      81.485    -335.395
  O     -316.172      80.088    -335.644
  C     -316.187      82.258    -336.710
  O     -317.272      81.880    -337.589
  C     -316.287      83.771    -336.558
  O     -315.071      84.343    -336.112
  C     -316.670      84.186    -337.975
  O     -315.520      84.291    -338.824
  C     -317.557      83.019    -338.437
  N     -321.380      85.318    -340.912
  C     -320.086      85.093    -341.246
  N     -319.136      84.451    -340.536
  C     -319.634      84.016    -339.364
  C     -320.922      84.182    -338.881
  C     -321.823      84.869    -339.711
  N     -323.128      85.129    -339.354
  N     -321.039      83.635    -337.616
  C     -319.845      83.141    -337.346
  N     -318.968      83.349    -338.373
  O     -315.126      77.830    -335.229
  O     -313.671      79.660    -336.296
  H     -315.855      84.306    -339.744
  H     -314.332      77.302    -335.435
  H     -319.781      85.478    -342.216
  H     -319.567      82.644    -336.423
  H     -317.340      82.717    -339.466
  H     -317.170      85.158    -337.983
  H     -317.111      84.030    -335.877
  H     -315.239      81.974    -337.198
  H     -315.512      81.810    -334.714
  H     -317.278      81.670    -334.930
  H     -323.709      85.644    -339.991
  H     -323.437      84.889    -338.417
  P     -315.101      85.818    -335.487
  C     -313.938      85.175    -333.243
  O     -315.109      85.665    -333.885
  O     -316.578      86.332    -335.828
  O     -314.048      86.738    -336.015
  H     -316.565      86.919    -336.606
  H     -314.102      85.132    -332.187
  H     -313.117      85.829    -333.450
  H     -313.714      84.195    -333.609

 6  7  8  9  10  11  12  13  14  15  25  28  32  33  34  35 0
 6-311+G(2d,p)
 ****
 36  37  40 0
 6-311+G(2d,p)
 ****
 1  2  3  4  5  16  17  18  19  20  21  22  23  24 0
 3-21G
 ****
 26  27  29  30  31  38  39 41  42  43  44  45  46  47  48 0
 3-21G
 ****


