%nproc=1
%NoSave
%Mem=1900MB
#P OB98/GEN NMR

erre ene a

0 1
  C      369.179     368.784    -899.062
  O      368.309     369.356    -898.082
  P      367.738     370.834    -898.332
  C      365.331     371.809    -898.132
  O      366.346     370.991    -897.542
  C      363.938     371.334    -897.752
  O      363.667     369.988    -898.292
  C      363.763     371.151    -896.232
  O      363.739     372.344    -895.472
  C      362.567     370.233    -896.142
  O      361.339     370.947    -896.262
  C      362.767     369.312    -897.382
  N      363.288     367.983    -897.032
  C      362.330     366.962    -896.972
  O      361.128     367.139    -897.162
  N      362.828     365.718    -896.682
  C      364.127     365.420    -896.362
  O      364.500     364.292    -896.082
  C      365.088     366.534    -896.412
  C      364.608     367.752    -896.742
  O      367.734     371.321    -899.732
  O      368.713     371.752    -897.432
  H      361.301     371.602    -895.532
  H      368.904     372.581    -897.942
  H      362.155     364.965    -896.632
  H      366.103     366.341    -896.182
  H      365.298     368.587    -896.772
  H      361.818     369.187    -897.932
  H      362.538     369.687    -895.182
  H      364.632     370.592    -895.862
  H      363.211     372.001    -898.172
  H      365.459     371.815    -899.232
  H      365.502     372.857    -897.832
  P      364.917     372.750    -894.442
  C      366.126     374.955    -893.752
  O      365.024     374.358    -894.432
  O      366.207     371.984    -894.532
  O      364.204     372.469    -893.012
  H      364.918     372.176    -892.382
  H      366.023     376.056    -893.812
  H      367.062     374.659    -894.202
  H      366.105     374.686    -892.682
  H      369.471     367.803    -898.750
  H      370.049     369.398    -899.168
  H      368.668     368.724    -900.000

 3  4  5  6  7  8  9  10  11  12  13  23  28  29  30  31  32 0
 6-311+G(2d,p)
 ****
 33  34 0
 6-311+G(2d,p)
 ****
 1  2  14  15  16  17  18  19  20  21  22  24  25  26  27 0
 3-21G
 ****
 35  36  37  38  39  40  41  42  43  44  45 0
 3-21G
 ****


