%nproc=1
%NoSave
%Mem=1900MB
#P OB98/GEN NMR

erre ene a

0 1
  C      -87.951    -504.218     -16.861
  O      -87.108    -503.768     -15.822
  H      -87.752    -505.278     -17.037
  H      -87.736    -503.665     -17.778
  H      -89.003    -504.099     -16.596
  P      -87.387    -502.333     -15.163
  C      -89.076    -502.815     -13.274
  O      -87.716    -502.603     -13.615
  C      -89.309    -502.580     -11.780
  O      -90.738    -502.424     -11.546
  C      -88.821    -503.726     -10.885
  O      -88.421    -503.153      -9.633
  C      -90.089    -504.543     -10.708
  O      -89.988    -505.423      -9.612
  C      -91.130    -503.427     -10.590
  N      -92.496    -503.909     -10.819
  C      -93.049    -504.697      -9.820
  O      -92.441    -505.021      -8.796
  N      -94.319    -505.147     -10.048
  C      -95.047    -504.944     -11.183
  O      -96.173    -505.397     -11.347
  C      -94.389    -504.141     -12.225
  C      -93.166    -503.665     -12.001
  O      -88.383    -501.477     -15.872
  O      -85.944    -501.641     -15.094
  H      -90.005    -504.919      -8.767
  H      -86.033    -500.673     -15.174
  H      -94.742    -505.714      -9.325
  H      -94.936    -503.968     -13.144
  H      -92.651    -503.065     -12.749
  H      -91.095    -502.975      -9.590
  H      -90.283    -505.153     -11.599
  H      -88.000    -504.299     -11.324
  H      -88.838    -501.634     -11.495
  H      -89.333    -503.850     -13.531
  H      -89.707    -502.138     -13.862
  P      -86.878    -502.975      -9.231
  C      -86.556    -500.770     -10.528
  O      -86.516    -501.409      -9.254
  O      -85.934    -503.833     -10.014
  O      -86.813    -503.347      -7.673
  H      -85.930    -503.689      -7.452
  H      -86.299    -499.737     -10.417
  H      -87.542    -500.850     -10.936
  H      -85.858    -501.243     -11.186

 6  7  8  9  10  11  12  13  14  15  16  26  31  32  33  34  35 0
 6-311+G(2d,p)
 ****
 36  37 0
 6-311+G(2d,p)
 ****
 1  2  3  4  5  17  18  19  20  21  22  23  24  25 0
 3-21G
 ****
 27  28  29  30  38  39  40  41  42  43  44  45 0
 3-21G
 ****


