%nproc=1
%NoSave
%Mem=1900MB
#P OB98/GEN NMR

erre ene a

0 1
  C      -81.745     212.943     -19.504
  O      -81.379     212.662     -20.841
  H      -82.491     213.742     -19.504
  H      -80.870     213.283     -18.945
  H      -82.178     212.062     -19.019
  P      -80.515     211.350     -21.154
  C      -81.840     210.875     -23.320
  O      -80.569     211.153     -22.746
  C      -81.758     210.959     -24.847
  O      -81.524     212.354     -25.221
  C      -80.609     210.118     -25.447
  O      -81.026     209.615     -26.721
  C      -79.532     211.170     -25.634
  O      -78.555     210.767     -26.563
  C      -80.367     212.370     -26.069
  N      -79.610     213.616     -25.959
  C      -78.612     213.836     -26.902
  O      -78.337     213.035     -27.799
  N      -77.874     214.975     -26.747
  C      -77.966     215.842     -25.693
  O      -77.224     216.808     -25.564
  C      -79.002     215.534     -24.695
  C      -79.769     214.457     -24.875
  O      -80.868     210.129     -20.365
  O      -79.001     211.809     -20.923
  H      -78.983     210.451     -27.378
  H      -78.429     211.031     -20.765
  H      -77.156     215.152     -27.430
  H      -79.091     216.198     -23.843
  H      -80.532     214.189     -24.148
  H      -80.710     212.251     -27.105
  H      -79.028     211.370     -24.679
  H      -80.298     209.295     -24.803
  H      -82.721     210.669     -25.277
  H      -82.554     211.619     -22.948
  H      -82.171     209.880     -23.015
  P      -81.812     208.224     -26.867
  C      -82.920     208.794     -29.115
  O      -82.077     207.880     -28.417
  O      -83.035     208.116     -26.005
  O      -80.740     207.113     -26.423
  H      -81.167     206.480     -25.814
  H      -83.030     208.474     -30.130
  H      -82.482     209.770     -29.094
  H      -83.881     208.824     -28.645

 6  7  8  9  10  11  12  13  14  15  16  26  31  32  33  34  35 0
 6-311+G(2d,p)
 ****
 36  37 0
 6-311+G(2d,p)
 ****
 1  2  3  4  5  17  18  19  20  21  22  23  24  25 0
 3-21G
 ****
 27  28  29  30  38  39  40  41  42  43  44  45 0
 3-21G
 ****


