%nproc=1
%NoSave
%Mem=1900MB
#P OB98/GEN NMR

erre ene a

0 1
  C     -166.315    -429.890    -353.129
  O     -164.954    -429.644    -352.830
  H     -166.448    -429.855    -354.212
  H     -166.941    -429.117    -352.671
  H     -166.613    -430.879    -352.766
  P     -164.506    -429.827    -351.297
  C     -162.166    -430.926    -351.761
  O     -162.902    -429.803    -351.310
  C     -160.683    -430.774    -351.415
  O     -160.071    -429.877    -352.378
  C     -160.432    -430.197    -350.020
  O     -159.260    -430.810    -349.480
  C     -160.155    -428.729    -350.290
  O     -159.405    -428.121    -349.244
  C     -159.437    -428.808    -351.650
  N     -159.497    -427.545    -352.385
  C     -158.480    -426.619    -352.131
  O     -157.594    -426.878    -351.311
  N     -158.507    -425.411    -352.774
  C     -159.499    -425.121    -353.555
  N     -159.480    -423.894    -354.146
  C     -160.618    -426.047    -353.821
  C     -160.548    -427.233    -353.218
  O     -164.861    -431.365    -351.035
  O     -165.150    -428.874    -350.348
  H     -158.617    -428.677    -349.060
  H     -164.589    -431.956    -351.758
  H     -161.427    -425.755    -354.473
  H     -161.322    -427.975    -353.362
  H     -158.381    -429.075    -351.512
  H     -161.098    -428.177    -350.391
  H     -161.277    -430.351    -349.341
  H     -160.197    -431.749    -351.531
  H     -158.706    -423.282    -353.923
  H     -162.272    -431.044    -352.843
  H     -160.227    -423.542    -354.731
  H     -162.581    -431.817    -351.280
  P     -159.401    -431.872    -348.294
  C     -159.149    -434.023    -349.713
  O     -158.604    -433.207    -348.679
  O     -160.779    -432.086    -347.771
  O     -158.464    -431.240    -347.145
  H     -158.923    -431.364    -346.290
  H     -158.519    -434.875    -349.865
  H     -159.209    -433.458    -350.619
  H     -160.128    -434.349    -349.431

 6  7  8  9  10  11  12  13  14  15  16  26  30  31  32  33  35 0
 6-311+G(2d,p)
 ****
 37  38 0
 6-311+G(2d,p)
 ****
 1  2  3  4  5  17  18  19  20  21  22  23  24  25 0
 3-21G
 ****
 27  28  29  34  36  39  40  41  42  43  44  45  46 0
 3-21G
 ****


