%nproc=1
%NoSave
%Mem=1900MB
#P OB98/GEN NMR

erre ene a

0 1
  C       78.562      50.384     146.288
  O       77.597      49.582     146.951
  P       76.970      48.342     146.146
  C       75.017      49.783     145.248
  O       76.138      48.968     144.924
  C       73.784      49.348     144.460
  O       74.041      49.544     143.039
  C       73.393      47.873     144.660
  O       71.967      47.777     144.812
  C       73.759      47.224     143.336
  O       72.988      46.052     143.080
  C       73.495      48.383     142.376
  N       73.108      45.923     137.979
  C       72.203      46.025     139.013
  N       71.051      45.328     138.878
  N       72.400      46.745     140.088
  C       73.581      47.416     140.070
  C       74.559      47.400     139.102
  C       74.352      46.549     137.947
  O       75.154      46.347     137.042
  N       75.606      48.223     139.437
  C       75.266      48.730     140.606
  N       74.067      48.236     141.055
  O       75.840      47.807     147.143
  O       77.933      47.260     145.787
  H       73.181      45.781     142.160
  H       75.991      46.859     147.333
  H       72.918      45.339     137.183
  H       75.867      49.431     141.177
  H       72.412      48.538     142.256
  H       74.820      46.948     143.351
  H       70.818      44.783     138.063
  H       73.889      47.388     145.508
  H       70.363      45.413     139.616
  H       72.948      50.009     144.725
  H       75.250      50.824     145.006
  H       74.824      49.704     146.323
  P       71.440      46.603     145.772
  C       70.892      44.959     143.826
  O       71.681      45.238     144.966
  O       69.849      46.792     145.745
  O       71.999      46.657     147.158
  H       69.445      46.415     146.552
  H       70.288      45.819     143.519
  H       70.227      44.123     144.049
  H       71.553      44.680     142.999
  H       78.887      51.165     146.943
  H       78.127      50.813     145.410
  H       79.400      49.779     146.012

 3  4  5  6  7  8  9  10  11  12  23  26  30  31  33  0
 6-311+G(2d,p)
 ****
 35  36  37  38 0
 6-311+G(2d,p)
 ****
 1  2  13  14  15  16  17  18  19  20  21  22  24  25  27  28  29 0
 3-21G
 ****
 32  34  39  40  41  42  43  44  45  46  47  48  49 0
 3-21G
 ****


