%nproc=1
%NoSave
%Mem=1900MB
#P OB98/GEN NMR

erre ene a

0 1
  C      -16.598      32.315     159.654
  O      -17.060      33.100     160.742
  P      -16.865      32.514     162.225
  C      -19.115      31.200     162.158
  O      -17.704      31.147     162.294
  C      -19.702      29.787     162.103
  O      -21.141      29.877     162.271
  C      -19.444      29.033     160.794
  O      -19.336      27.642     161.126
  C      -20.719      29.270     160.005
  O      -20.921      28.298     158.983
  C      -21.753      29.242     161.126
  N      -25.400      32.362     162.724
  C      -24.378      31.758     163.434
  N      -24.286      32.081     164.743
  N      -23.527      30.915     162.910
  C      -23.734      30.702     161.588
  C      -24.731      31.211     160.786
  C      -25.644      32.167     161.370
  O      -26.508      32.792     160.760
  N      -24.671      30.693     159.520
  C      -23.589      29.938     159.534
  N      -22.962      29.949     160.751
  O      -17.718      33.527     163.122
  O      -15.449      32.386     162.691
  H      -20.243      28.445     158.291
  H      -17.154      34.237     163.483
  H      -26.014      33.016     163.179
  H      -23.213      29.370     158.700
  H      -22.038      28.221     161.411
  H      -20.679      30.258     159.530
  H      -24.888      32.744     165.205
  H      -18.548      29.368     160.264
  H      -23.527      31.677     165.277
  H      -19.310      29.218     162.957
  H      -19.363      31.713     161.225
  H      -19.544      31.767     162.990
  P      -18.179      26.789     160.415
  C      -19.800      25.553     158.817
  O      -18.687      26.415     158.945
  O      -18.241      25.388     161.194
  O      -16.813      27.386     160.507
  H      -17.347      24.998     161.236
  H      -20.259      25.710     157.838
  H      -20.550      25.744     159.592
  H      -19.466      24.513     158.887
  H      -16.794      32.828     158.736
  H      -17.107      31.374     159.652
  H      -15.545      32.151     159.754

 3  4  5  6  7  8  9  10  11  12  23  26  30  31 0
 6-311+G(2d,p)
 ****
 33  35  36  37  38 0
 6-311+G(2d,p)
 ****
 1  2  13  14  15  16  17  18  19  20  21  22  24  25 0
 3-21G
 ****
 27  28  29  32  34  39  40  41  42  43  44  45  46  47  48  49 0
 3-21G
 ****


