%nproc=1
%NoSave
%Mem=1900MB
#P OB98/GEN NMR

erre ene a

0 1
  C     -143.689    -793.370    -391.041
  O     -142.741    -794.375    -390.738
  P     -142.219    -794.596    -389.241
  C     -143.804    -796.598    -388.961
  O     -143.373    -795.356    -388.424
  C     -143.518    -797.746    -388.003
  O     -142.090    -797.987    -387.938
  C     -144.019    -797.503    -386.570
  O     -144.523    -798.763    -386.079
  C     -142.761    -797.105    -385.822
  O     -142.870    -797.314    -384.433
  C     -141.724    -797.975    -386.544
  N     -140.366    -797.488    -386.360
  C     -139.488    -798.305    -385.659
  O     -139.898    -799.344    -385.117
  N     -138.170    -797.943    -385.574
  C     -137.799    -796.758    -385.982
  N     -136.481    -796.464    -385.942
  C     -138.761    -795.761    -386.505
  C     -140.005    -796.201    -386.698
  O     -141.684    -793.380    -388.571
  O     -141.089    -795.720    -389.385
  H     -140.261    -795.396    -388.963
  H     -142.619    -798.244    -384.231
  H     -138.436    -794.755    -386.709
  H     -140.772    -795.541    -387.097
  H     -141.773    -799.010    -386.181
  H     -142.560    -796.043    -385.996
  H     -144.814    -796.762    -386.523
  H     -143.976    -798.656    -388.415
  H     -135.848    -797.185    -385.621
  H     -143.250    -796.769    -389.898
  H     -136.075    -795.728    -386.518
  H     -144.874    -796.554    -389.207
  P     -146.008    -798.795    -385.473
  C     -147.631    -799.807    -387.221
  O     -147.044    -798.642    -386.681
  O     -146.101    -797.361    -384.758
  O     -146.286    -799.867    -384.474
  H     -146.756    -797.404    -384.031
  H     -148.246    -799.514    -388.073
  H     -148.266    -800.293    -386.479
  H     -146.863    -800.494    -387.578
  H     -143.904    -793.387    -392.089
  H     -143.292    -792.413    -390.774
  H     -144.588    -793.550    -390.490

 3  4  5  6  7  8  9  10  11  12  13  24  27  28  29  30  32 0
 6-311+G(2d,p)
 ****
 34  35 0
 6-311+G(2d,p)
 ****
 1  2  14  15  16  17  18  19  20  21  22  23  25  26 0
 3-21G
 ****
 31  33  36  37  38  39  40  41  42  43  44  45  46 0
 3-21G
 ****


