%nproc=1
%NoSave
%Mem=1900MB
#P OB98/GEN NMR

erre ene a

0 1
  C      175.394    -564.372     940.736
  O      175.307    -565.017     942.001
  P      176.525    -564.839     943.046
  C      177.841    -567.032     942.530
  O      177.794    -565.612     942.449
  C      179.275    -567.538     942.260
  O      179.627    -567.434     940.877
  C      180.331    -566.777     943.031
  O      180.474    -567.242     944.348
  C      181.573    -567.133     942.227
  O      182.040    -568.433     942.601
  C      181.036    -567.152     940.781
  N      181.756    -564.991     936.263
  C      181.596    -566.311     936.606
  N      181.630    -567.209     935.582
  N      181.424    -566.748     937.811
  C      181.391    -565.733     938.738
  C      181.559    -564.398     938.523
  C      181.766    -563.939     937.178
  O      181.939    -562.766     936.804
  N      181.483    -563.687     939.715
  C      181.275    -564.607     940.632
  N      181.237    -565.890     940.089
  O      176.072    -565.765     944.262
  O      176.734    -563.431     943.478
  H      182.252    -568.422     943.551
  H      176.463    -565.446     945.096
  H      181.907    -564.698     935.302
  H      181.134    -564.432     941.691
  H      181.493    -567.943     940.190
  H      182.388    -566.434     942.390
  H      181.686    -566.938     934.600
  H      180.152    -565.682     942.982
  H      181.465    -568.190     935.790
  H      179.308    -568.611     942.567
  H      177.147    -567.483     941.813
  H      177.474    -567.350     943.513
  P      179.526    -566.592     945.501
  C      181.121    -564.687     946.298
  O      179.962    -565.046     945.577
  O      180.115    -567.228     946.841
  O      178.070    -566.860     945.326
  H      179.374    -567.323     947.505
  H      181.343    -563.640     946.126
  H      181.974    -565.291     946.005
  H      180.943    -564.834     947.391
  H      174.515    -564.587     940.165
  H      176.256    -564.729     940.212
  H      175.477    -563.315     940.880

 3  4  5  6  7  8  9  10  11  12  23  26  30  31 0
 6-311+G(2d,p)
 ****
 33  35  36  37  38 0
 6-311+G(2d,p)
 ****
 1  2  13  14  15  16  17  18  19  20  21  22  24  25 0
 3-21G
 ****
 27  28  29  32  34  39  40  41  42  43  44  45  46  47  48  49 0
 3-21G
 ****


