%nproc=1
%NoSave
%Mem=1900MB
#P OB98/GEN NMR

erre ene a

0 1
  C     -674.506     334.485    -737.553
  O     -673.730     335.494    -736.931
  H     -673.861     333.914    -738.221
  H     -675.308     334.935    -738.142
  H     -674.928     333.806    -736.806
  P     -674.460     336.479    -735.894
  C     -675.032     338.872    -736.717
  O     -675.346     337.473    -736.793
  C     -674.063     339.247    -737.838
  O     -674.579     338.814    -739.112
  C     -673.814     340.756    -737.961
  O     -672.853     341.176    -737.002
  C     -673.312     340.835    -739.393
  O     -671.941     340.389    -739.449
  C     -674.238     339.815    -740.101
  N     -676.380     342.255    -744.005
  C     -675.057     341.908    -743.798
  N     -674.181     342.278    -744.747
  N     -674.638     341.244    -742.746
  C     -675.609     340.994    -741.847
  C     -676.957     341.316    -741.925
  C     -677.411     341.998    -743.125
  O     -678.575     342.318    -743.350
  N     -677.642     340.965    -740.784
  C     -676.708     340.375    -740.037
  N     -675.463     340.401    -740.623
  O     -673.578     337.172    -734.901
  O     -675.559     335.551    -735.190
  H     -671.428     340.967    -738.866
  H     -675.216     335.165    -734.364
  H     -676.640     342.782    -744.833
  H     -676.900     339.950    -739.045
  H     -673.731     339.304    -740.936
  H     -673.342     341.843    -739.792
  H     -674.387     343.000    -745.416
  H     -674.754     341.320    -737.880
  H     -673.196     342.059    -744.598
  H     -673.114     338.703    -737.678
  H     -674.574     339.049    -735.732
  H     -675.946     339.469    -736.792
  P     -672.762     342.721    -736.540
  C     -670.669     344.007    -737.401
  O     -671.942     343.433    -737.731
  O     -672.193     342.931    -735.174
  O     -674.242     343.290    -736.744
  H     -674.804     343.177    -735.940
  H     -670.236     344.443    -738.277
  H     -670.020     343.244    -737.025
  H     -670.801     344.762    -736.655

 6  7  8  9  10  11  12  13  14  15  26  29  33  34 0
 6-311+G(2d,p)
 ****
 36  38  39  40  41 0
 6-311+G(2d,p)
 ****
 1  2  3  4  5  16  17  18  19  20  21  22  23  24  25 0
 3-21G
 ****
 27  28  30  31  32  35  37  42  43  44  45  46  47 0
 3-21G
 ****
 48  49 0
 3-21G
 ****


