%nproc=1
%NoSave
%Mem=1900MB
#P OB98/GEN NMR

erre ene a

0 1
  C     -394.995      73.318     427.180
  O     -396.336      73.324     427.625
  P     -396.921      74.578     428.437
  C     -397.246      72.949     430.411
  O     -396.730      74.211     429.987
  C     -396.302      72.290     431.414
  O     -394.944      72.306     430.927
  C     -396.262      72.974     432.774
  O     -397.413      72.643     433.537
  C     -394.955      72.438     433.334
  O     -395.130      71.135     433.913
  C     -394.069      72.358     432.071
  N     -393.126      73.468     431.983
  C     -391.998      73.377     432.806
  O     -391.861      72.426     433.577
  N     -391.075      74.401     432.778
  C     -391.280      75.425     432.011
  N     -390.341      76.407     432.034
  C     -392.466      75.569     431.147
  C     -393.343      74.564     431.185
  O     -398.300      75.004     428.039
  O     -395.816      75.714     428.198
  H     -395.241      70.513     433.158
  H     -395.865      76.077     427.282
  H     -392.601      76.449     430.532
  H     -394.246      74.591     430.588
  H     -393.496      71.420     432.062
  H     -394.544      73.082     434.119
  H     -396.187      74.058     432.644
  H     -396.612      71.240     431.529
  H     -389.554      76.283     432.659
  H     -397.349      72.307     429.532
  H     -390.417      77.263     431.503
  H     -398.241      73.092     430.846
  P     -398.441      73.788     433.962
  C     -398.364      72.764     436.313
  O     -398.361      73.960     435.548
  O     -399.822      73.647     433.408
  O     -397.754      75.130     433.417
  H     -398.435      75.684     432.986
  H     -397.973      72.985     437.305
  H     -397.737      72.000     435.846
  H     -399.385      72.395     436.405
  H     -394.795      72.403     426.662
  H     -394.340      73.402     428.022
  H     -394.835      74.144     426.519

 3  4  5  6  7  8  9  10  11  12  13  23  27  28  29  30  32 0
 6-311+G(2d,p)
 ****
 34  35 0
 6-311+G(2d,p)
 ****
 1  2  14  15  16  17  18  19  20  21  22  24  25  26 0
 3-21G
 ****
 31  33  36  37  38  39  40  41  42  43  44  45  46 0
 3-21G
 ****


