%nproc=1
%NoSave
%Mem=1900MB
#P OB98/GEN NMR

erre ene a

0 1
  C     -217.203     761.819     717.892
  O     -216.394     761.127     716.991
  P     -216.710     761.294     715.410
  C     -214.564     762.762     715.014
  O     -216.005     762.668     714.946
  C     -213.989     762.674     713.620
  O     -214.580     763.648     712.720
  C     -212.467     762.940     713.547
  O     -211.740     761.836     714.042
  C     -212.302     763.214     712.055
  O     -212.270     761.970     711.332
  C     -213.591     763.982     711.735
  N     -212.468     768.086     708.862
  C     -212.532     766.805     708.564
  N     -212.811     765.755     709.376
  C     -213.050     766.181     710.633
  C     -212.979     767.493     711.106
  C     -212.677     768.455     710.152
  N     -212.584     769.824     710.463
  N     -213.259     767.542     712.451
  C     -213.499     766.323     712.795
  N     -213.393     765.432     711.745
  O     -218.276     761.676     715.412
  O     -216.406     760.103     714.573
  H     -212.341     762.192     710.380
  H     -218.723     761.307     714.627
  H     -212.343     766.507     707.517
  H     -213.746     765.955     713.786
  H     -214.008     763.721     710.750
  H     -211.377     763.754     711.826
  H     -212.202     763.855     714.135
  H     -214.194     761.649     713.237
  H     -214.187     761.946     715.632
  H     -212.224     770.428     709.776
  H     -212.624     770.089     711.447
  H     -214.301     763.730     715.492
  P     -210.273     762.149     714.673
  C     -211.247     762.993     716.906
  O     -210.545     763.328     715.740
  O     -209.552     762.898     713.467
  O     -209.554     760.948     715.222
  H     -210.119     763.608     713.085
  H     -211.314     763.862     717.553
  H     -210.723     762.198     717.425
  H     -212.256     762.635     716.658
  H     -216.879     761.615     718.891
  H     -218.219     761.503     717.774
  H     -217.132     762.869     717.701

 3  4  5  6  7  8  9  10  11  12  22  25  29  30  31  32 0
 6-311+G(2d,p)
 ****
 33  36  37 0
 6-311+G(2d,p)
 ****
 1  2  13  14  15  16  17  18  19  20  21  23  24  26 0
 3-21G
 ****
 27  28  34  35  38  39  40  41  42  43  44  45  46  47  48 0
 3-21G
 ****


