%nproc=1
%NoSave
%Mem=1900MB
#P OB98/GEN NMR

erre ene a

0 1
  C       32.411       5.020     -14.452
  O       33.047       4.099     -15.317
  H       31.332       4.960     -14.611
  H       32.740       6.040     -14.669
  H       32.624       4.773     -13.409
  P       34.646       4.022     -15.308
  C       34.668       5.193     -17.610
  O       35.154       5.198     -16.273
  C       35.631       5.941     -18.526
  O       35.775       7.309     -18.097
  C       37.041       5.354     -18.570
  O       37.095       4.247     -19.454
  C       37.824       6.550     -19.085
  O       37.611       6.694     -20.503
  C       37.152       7.714     -18.333
  N       40.474      10.725     -15.957
  C       40.217      10.583     -17.306
  N       40.972      11.326     -18.142
  N       39.309       9.776     -17.792
  C       38.680       9.045     -16.844
  C       38.860       9.084     -15.480
  C       39.820      10.029     -14.951
  O       40.061      10.205     -13.760
  N       38.108       8.128     -14.846
  C       37.434       7.548     -15.821
  N       37.752       8.063     -17.057
  O       35.242       2.683     -15.616
  O       35.057       4.542     -13.852
  H       37.922       7.584     -20.750
  H       35.140       3.802     -13.224
  H       41.191      11.357     -15.641
  H       36.704       6.759     -15.690
  H       37.127       8.631     -18.932
  H       38.899       6.452     -18.929
  H       41.781      11.848     -17.840
  H       37.401       5.098     -17.568
  H       40.837      11.191     -19.137
  H       35.187       5.966     -19.530
  H       33.689       5.681     -17.606
  H       34.545       4.166     -17.968
  P       38.063       2.995     -19.174
  C       40.009       4.132     -20.444
  O       39.550       3.592     -19.216
  O       37.838       1.820     -20.062
  O       37.873       2.688     -17.619
  H       37.097       2.102     -17.434
  H       41.010       4.490     -20.324
  H       39.373       4.941     -20.738
  H       39.990       3.372     -21.197

 6  7  8  9  10  11  12  13  14  15  26  29  33  34 0
 6-311+G(2d,p)
 ****
 36  38  39  40  41 0
 6-311+G(2d,p)
 ****
 1  2  3  4  5  16  17  18  19  20  21  22  23  24  25 0
 3-21G
 ****
 27  28  30  31  32  35  37  42  43  44  45  46  47 0
 3-21G
 ****
 48  49 0
 3-21G
 ****


