%nproc=1
%NoSave
%Mem=1900MB
#P OB98/GEN NMR

erre ene a

0 1
  C       37.515     -81.692     224.814
  O       37.361     -81.579     223.416
  H       38.342     -81.049     225.128
  H       37.755     -82.724     225.083
  H       36.608     -81.373     225.335
  P       36.099     -82.279     222.717
  C       35.077     -81.956     220.368
  O       36.264     -82.065     221.138
  C       35.290     -81.022     219.170
  O       35.662     -79.702     219.672
  C       36.410     -81.474     218.208
  O       36.051     -81.005     216.900
  C       37.593     -80.704     218.767
  O       38.705     -80.721     217.908
  C       36.912     -79.353     219.033
  N       37.669     -78.424     219.861
  C       38.664     -77.672     219.241
  O       38.945     -77.732     218.044
  N       39.358     -76.817     220.057
  C       39.150     -76.634     221.395
  O       39.782     -75.830     222.068
  C       38.092     -77.461     221.992
  C       37.409     -78.300     221.210
  O       34.763     -81.907     223.270
  O       36.392     -83.845     222.894
  H       35.852     -84.198     223.628
  H       39.469     -80.310     218.366
  H       40.079     -76.261     219.626
  H       37.907     -77.353     223.053
  H       36.616     -78.916     221.622
  H       36.662     -78.870     218.084
  H       37.930     -81.162     219.700
  H       36.543     -82.558     218.184
  H       34.337     -80.904     218.639
  H       34.288     -81.552     221.014
  H       34.780     -82.949     220.023
  P       35.139     -81.844     215.880
  C       33.164     -81.346     214.280
  O       34.229     -80.807     215.057
  O       34.359     -82.943     216.526
  O       36.150     -82.421     214.782
  H       35.783     -83.238     214.398
  H       32.644     -80.551     213.788
  H       32.487     -81.873     214.920
  H       33.561     -82.019     213.549

 6  7  8  9  10  11  12  13  14  15  16  27  31  32  33  34  35 0
 6-311+G(2d,p)
 ****
 36  37 0
 6-311+G(2d,p)
 ****
 1  2  3  4  5  17  18  19  20  21  22  23  24  25 0
 3-21G
 ****
 26  28  29  30  38  39  40  41  42  43  44  45 0
 3-21G
 ****


