%nproc=1
%NoSave
%Mem=1900MB
#P OB98/GEN NMR

erre ene a

0 1
  C       12.312    -855.688    -214.207
  O       12.905    -855.250    -212.998
  P       13.107    -856.274    -211.787
  C       15.071    -857.456    -212.947
  O       13.773    -857.610    -212.375
  C       16.075    -858.356    -212.229
  O       16.050    -858.105    -210.809
  C       15.796    -859.847    -212.381
  O       16.200    -860.300    -213.661
  C       16.601    -860.419    -211.219
  O       17.987    -860.537    -211.566
  C       16.417    -859.332    -210.143
  N       15.474    -862.112    -205.978
  C       16.519    -862.096    -206.819
  N       16.681    -861.352    -207.945
  C       15.598    -860.584    -208.151
  C       14.445    -860.523    -207.398
  C       14.409    -861.322    -206.233
  N       13.375    -861.297    -205.322
  N       13.543    -859.632    -207.952
  C       14.144    -859.182    -209.036
  N       15.414    -859.676    -209.155
  O       11.900    -856.490    -210.936
  O       14.291    -855.623    -210.935
  H       18.067    -861.287    -212.193
  H       13.970    -855.428    -210.034
  H       17.343    -862.758    -206.576
  H       13.711    -858.473    -209.743
  H       17.349    -859.130    -209.601
  H       16.250    -861.408    -210.913
  H       14.738    -860.039    -212.211
  H       17.071    -858.103    -212.592
  H       15.372    -856.415    -212.850
  H       13.516    -861.797    -204.465
  H       12.728    -860.509    -205.341
  H       15.030    -857.711    -214.010
  P       15.431    -861.519    -214.349
  C       13.383    -860.156    -215.065
  O       13.864    -861.215    -214.256
  O       15.836    -862.886    -213.884
  O       15.733    -861.339    -215.902
  H       15.776    -862.210    -216.342
  H       13.645    -859.198    -214.619
  H       12.300    -860.240    -215.136
  H       13.816    -860.223    -216.074
  H       12.260    -854.871    -214.895
  H       11.325    -856.051    -214.009
  H       12.903    -856.474    -214.630

 3  4  5  6  7  8  9  10  11  12  22  25  29  30  31  32 0
 6-311+G(2d,p)
 ****
 33  36  37 0
 6-311+G(2d,p)
 ****
 1  2  13  14  15  16  17  18  19  20  21  23  24  26 0
 3-21G
 ****
 27  28  34  35  38  39  40  41  42  43  44  45  46  47  48 0
 3-21G
 ****


