%nproc=1
%NoSave
%Mem=1900MB
#P OB98/GEN NMR

erre ene a

0 1
  C     -895.816     605.918     323.894
  O     -895.766     605.432     322.567
  H     -896.836     605.804     324.273
  H     -895.546     606.973     323.925
  H     -895.136     605.341     324.535
  P     -894.366     605.616     321.796
  C     -895.026     607.776     320.486
  O     -894.786     606.380     320.442
  C     -894.946     608.365     319.073
  O     -893.586     608.355     318.586
  C     -895.756     607.601     318.033
  O     -897.146     607.870     318.086
  C     -895.126     608.156     316.758
  O     -895.596     609.501     316.537
  C     -893.636     608.153     317.155
  N     -892.946     606.902     316.796
  C     -892.626     606.731     315.430
  O     -892.926     607.594     314.604
  N     -892.016     605.563     315.040
  C     -891.736     604.656     315.924
  N     -891.136     603.521     315.473
  C     -892.036     604.794     317.367
  C     -892.636     605.930     317.723
  O     -894.026     604.144     321.280
  O     -893.266     606.271     322.570
  H     -895.096     609.849     315.794
  H     -893.256     604.166     320.662
  H     -891.786     604.002     318.050
  H     -892.896     606.104     318.766
  H     -893.106     608.987     316.682
  H     -895.366     607.573     315.866
  H     -895.556     606.527     318.082
  H     -895.266     609.413     319.134
  H     -890.976     603.435     314.478
  H     -894.266     608.232     321.129
  H     -890.996     602.697     316.050
  H     -896.016     607.971     320.911
  P     -898.146     606.624     317.941
  C     -899.186     606.527     315.560
  O     -899.266     607.048     316.870
  O     -898.936     606.620     319.331
  O     -897.466     605.299     317.674
  H     -899.146     605.701     319.610
  H     -900.000     606.904     314.976
  H     -899.238     605.459     315.597
  H     -898.260     606.824     315.114

 6  7  8  9  10  11  12  13  14  15  16  26  30  31  32  33  35 0
 6-311+G(2d,p)
 ****
 37  38 0
 6-311+G(2d,p)
 ****
 1  2  3  4  5  17  18  19  20  21  22  23  24  25 0
 3-21G
 ****
 27  28  29  34  36  39  40  41  42  43  44  45  46 0
 3-21G
 ****


