%nproc=1
%NoSave
%Mem=1900MB
#P OB98/GEN NMR

erre ene a

0 1
  C      -56.451    -810.393    -897.690
  O      -56.101    -809.385    -898.620
  H      -55.704    -811.199    -897.750
  H      -57.427    -810.817    -897.940
  H      -56.461    -809.975    -896.680
  P      -57.056    -808.089    -898.660
  C      -55.292    -806.579    -897.450
  O      -56.602    -807.163    -897.440
  C      -55.198    -805.438    -896.440
  O      -56.179    -804.412    -896.800
  C      -55.516    -805.855    -895.000
  O      -54.757    -805.003    -894.090
  C      -56.998    -805.523    -894.880
  O      -57.395    -805.487    -893.550
  C      -57.026    -804.202    -895.640
  N      -61.136    -801.522    -894.230
  C      -59.907    -801.654    -893.670
  N      -58.852    -802.349    -894.130
  C      -59.162    -803.005    -895.300
  C      -60.369    -802.969    -895.960
  C      -61.410    -802.190    -895.380
  N      -62.648    -802.066    -895.940
  N      -60.325    -803.724    -897.110
  C      -59.081    -804.247    -897.100
  N      -58.370    -803.808    -896.030
  O      -58.482    -808.672    -898.180
  O      -57.165    -807.404    -900.000
  H      -56.879    -804.828    -893.030
  H      -58.994    -808.935    -898.970
  H      -59.758    -801.072    -892.780
  H      -58.667    -804.907    -897.860
  H      -56.589    -803.357    -895.060
  H      -57.619    -806.298    -895.390
  H      -55.281    -806.923    -894.790
  H      -54.198    -804.970    -896.500
  H      -55.079    -806.211    -898.480
  H      -54.550    -807.360    -897.200
  H      -63.340    -801.496    -895.450
  H      -62.897    -802.582    -896.800
  P      -53.217    -805.309    -893.830
  C      -51.715    -803.631    -895.160
  O      -52.328    -804.918    -895.130
  O      -53.186    -806.932    -893.920
  O      -52.676    -804.829    -892.510
  H      -52.658    -807.300    -893.160
  H      -51.166    -803.518    -896.072
  H      -51.049    -803.534    -894.328
  H      -52.470    -802.875    -895.102

 6  7  8  9  10  11  12  13  14  15  25  28  32  33  34  35 0
 6-311+G(2d,p)
 ****
 36  37  40 0
 6-311+G(2d,p)
 ****
 1  2  3  4  5  16  17  18  19  20  21  22  23  24 0
 3-21G
 ****
 26  27  29  30  31  38  39 41  42  43  44  45  46  47  48 0
 3-21G
 ****


