%nproc=1
%NoSave
%Mem=1900MB
#P OB98/GEN NMR

erre ene a

0 1
  C      107.457      40.112      44.922
  O      108.874      40.060      45.082
  P      109.567      38.627      45.280
  C      110.350      37.988      42.905
  O      109.383      37.780      43.929
  C      111.189      36.717      42.689
  O      110.335      35.677      42.141
  C      112.347      36.868      41.695
  O      113.612      37.299      42.191
  C      112.530      35.427      41.227
  O      113.347      34.708      42.171
  C      111.113      34.860      41.240
  N      110.190      32.002      37.097
  C      110.830      31.733      38.257
  N      111.033      32.552      39.310
  C      110.485      33.755      39.091
  C      109.800      34.174      37.960
  C      109.660      33.237      36.924
  N      109.020      33.513      35.739
  N      109.390      35.484      38.095
  C      109.836      35.854      39.280
  N      110.491      34.843      39.927
  O      109.228      37.906      46.542
  O      111.129      38.992      45.238
  H      114.240      35.099      42.118
  H      111.602      38.428      45.880
  H      111.235      30.728      38.351
  H      109.709      36.839      39.706
  H      111.079      33.833      41.621
  H      113.039      35.362      40.261
  H      112.052      37.499      40.847
  H      111.571      36.370      43.657
  H      111.004      38.818      43.184
  H      109.002      32.798      35.029
  H      108.669      34.444      35.569
  H      109.816      38.294      42.005
  P      114.507      38.360      41.392
  C      113.680      40.625      42.405
  O      113.635      39.704      41.339
  O      115.009      37.894      40.070
  O      115.652      38.715      42.450
  H      115.341      39.210      43.227
  H      113.201      41.555      42.087
  H      114.714      40.842      42.690
  H      113.137      40.224      43.265
  H      107.149      41.130      44.802
  H      106.985      39.696      45.788
  H      107.175      39.549      44.057

 3  4  5  6  7  8  9  10  11  12  22  25  29  30  31  32 0
 6-311+G(2d,p)
 ****
 33  36  37 0
 6-311+G(2d,p)
 ****
 1  2  13  14  15  16  17  18  19  20  21  23  24  26 0
 3-21G
 ****
 27  28  34  35  38  39  40  41  42  43  44  45  46  47  48 0
 3-21G
 ****


