%nproc=1
%NoSave
%Mem=1900MB
#P OB98/GEN NMR

erre ene a

0 1
  C     -643.803    -476.400     471.158
  O     -642.545    -476.601     471.756
  P     -641.509    -477.568     471.001
  C     -639.541    -475.948     471.575
  O     -640.053    -477.276     471.605
  C     -638.285    -475.845     472.461
  O     -638.651    -475.958     473.864
  C     -637.279    -476.958     472.217
  O     -636.503    -476.713     471.056
  C     -636.449    -476.934     473.493
  O     -635.445    -475.919     473.447
  C     -637.538    -476.571     474.552
  N     -637.960    -477.724     475.343
  C     -637.126    -478.063     476.415
  O     -636.089    -477.446     476.662
  N     -637.518    -479.160     477.151
  C     -638.595    -479.965     476.890
  O     -638.857    -480.966     477.551
  C     -639.417    -479.578     475.725
  C     -639.062    -478.498     475.018
  O     -641.425    -476.972     469.520
  O     -641.896    -479.012     471.013
  H     -635.893    -475.110     473.146
  H     -641.315    -477.712     468.875
  H     -636.941    -479.401     477.935
  H     -640.265    -480.184     475.496
  H     -639.642    -478.205     474.152
  H     -637.149    -475.805     475.241
  H     -635.953    -477.877     473.704
  H     -637.795    -477.925     472.133
  H     -637.833    -474.865     472.301
  H     -640.307    -475.253     471.942
  H     -639.296    -475.683     470.544
  P     -636.571    -477.800     469.867
  C     -637.706    -476.122     468.213
  O     -636.602    -476.945     468.521
  O     -638.057    -478.348     470.054
  O     -635.496    -478.854     469.989
  H     -638.670    -477.671     470.378
  H     -638.118    -475.661     469.133
  H     -638.480    -476.710     467.731
  H     -637.392    -475.321     467.548
  H     -644.385    -475.739     471.765
  H     -644.309    -477.339     471.067
  H     -643.672    -475.970     470.187

 3  4  5  6  7  8  9  10  11  12  13  23  28  29  30  31  32 0
 6-311+G(2d,p)
 ****
 33  34 0
 6-311+G(2d,p)
 ****
 1  2  14  15  16  17  18  19  20  21  22  24  25  26 0
 3-21G
 ****
 27  35  36  37  38  39  40  41  42  43  44  45 0
 3-21G
 ****


