%nproc=1
%NoSave
%Mem=1900MB
#P OB98/GEN NMR

erre ene a

0 1
  C      147.194      17.151     -37.131
  O      148.410      17.798     -37.513
  P      149.636      17.658     -36.486
  C      150.611      15.525     -37.599
  O      150.822      16.887     -37.249
  C      151.765      14.994     -38.460
  O      151.680      15.519     -39.819
  C      153.158      15.364     -37.919
  O      154.024      14.259     -38.219
  C      153.515      16.576     -38.768
  O      154.898      16.896     -38.734
  C      152.963      16.121     -40.115
  N      155.506      19.566     -42.893
  C      155.921      18.634     -42.011
  N      155.177      17.751     -41.307
  C      153.873      17.899     -41.596
  C      153.294      18.808     -42.472
  C      154.176      19.675     -43.144
  N      153.760      20.645     -44.028
  N      151.914      18.668     -42.481
  C      151.671      17.743     -41.568
  N      152.821      17.195     -41.074
  O      149.108      16.587     -35.418
  O      150.034      18.948     -35.847
  H      155.426      16.099     -38.949
  H      148.784      17.038     -34.616
  H      156.996      18.589     -41.847
  H      150.689      17.433     -41.235
  H      153.589      15.352     -40.581
  H      152.966      17.451     -38.399
  H      153.177      15.554     -36.843
  H      151.672      13.901     -38.524
  H      149.675      15.421     -38.154
  H      154.468      21.223     -44.458
  H      152.776      20.763     -44.231
  H      150.493      14.934     -36.682
  P      154.983      13.693     -37.065
  C      153.182      12.085     -36.188
  O      154.456      12.197     -36.800
  O      154.393      14.467     -35.786
  O      156.450      13.881     -37.270
  H      153.423      14.376     -35.739
  H      152.911      11.028     -36.137
  H      152.431      12.621     -36.774
  H      153.222      12.487     -35.170
  H      146.453      17.311     -37.886
  H      146.851      17.557     -36.202
  H      147.368      16.101     -37.019

 3  4  5  6  7  8  9  10  11  12  22  25  29  30  31  32 0
 6-311+G(2d,p)
 ****
 33  36  37 0
 6-311+G(2d,p)
 ****
 1  2  13  14  15  16  17  18  19  20  21  23  24  26 0
 3-21G
 ****
 27  28  34  35  38  39  40  41  42  43  44  45  46  47  48 0
 3-21G
 ****


