%nproc=1
%NoSave
%Mem=1900MB
#P OB98/GEN NMR

erre ene a

0 1
  C       49.496    -208.032     -18.744
  O       48.331    -207.971     -17.945
  H       49.614    -207.105     -19.311
  H       50.365    -208.158     -18.093
  H       49.440    -208.883     -19.429
  P       46.939    -207.750     -18.712
  C       47.597    -205.462     -19.762
  O       46.775    -206.158     -18.834
  C       47.563    -203.971     -19.446
  O       48.504    -203.263     -20.286
  C       46.207    -203.318     -19.701
  O       45.301    -203.509     -18.628
  C       46.616    -201.861     -19.825
  O       46.869    -201.313     -18.519
  C       47.926    -201.972     -20.621
  N       47.503    -198.819     -24.632
  C       47.743    -198.586     -23.322
  N       47.862    -199.483     -22.322
  C       47.717    -200.734     -22.784
  C       47.476    -201.125     -24.091
  C       47.361    -200.100     -25.044
  N       47.084    -200.330     -26.374
  N       47.365    -202.501     -24.173
  C       47.557    -202.927     -22.940
  N       47.741    -201.895     -22.060
  O       45.835    -208.142     -17.620
  O       46.777    -208.489     -19.998
  H       46.995    -200.352     -18.632
  H       44.964    -208.259     -18.044
  H       47.851    -197.542     -23.043
  H       47.560    -203.966     -22.635
  H       48.654    -201.199     -20.344
  H       45.841    -201.243     -20.287
  H       45.775    -203.650     -20.650
  H       47.877    -203.832     -18.403
  H       47.216    -205.633     -20.774
  H       46.874    -199.528     -26.946
  H       46.831    -201.265     -26.662
  H       48.622    -205.839     -19.694
  P       43.761    -203.776     -18.999
  C       43.369    -201.222     -18.733
  O       42.930    -202.536     -18.408
  O       43.363    -204.983     -18.028
  O       43.514    -204.101     -20.437
  H       42.696    -205.561     -18.445
  H       42.722    -200.505     -18.271
  H       43.347    -201.091     -19.795
  H       44.368    -201.082     -18.377

 6  7  8  9  10  11  12  13  14  15  25  28  32  33  34  35 0
 6-311+G(2d,p)
 ****
 36  39  40 0
 6-311+G(2d,p)
 ****
 1  2  3  4  5  16  17  18  19  20  21  22  23  24 0
 3-21G
 ****
 26  27  29  30  31  37  38  41  42  43  44  45  46  47 0
 3-21G
 ****
 48 0
 3-21G
 ****


