%nproc=1
%NoSave
%Mem=1900MB
#P OB98/GEN NMR

erre ene a

0 1
  C       28.735    -282.138      80.800
  O       29.282    -281.225      79.859
  P       28.496    -279.847      79.630
  C       26.374    -281.016      78.677
  O       27.446    -280.109      78.445
  C       25.369    -280.935      77.531
  O       24.660    -279.681      77.576
  C       25.985    -281.006      76.136
  O       26.358    -282.336      75.813
  C       24.834    -280.449      75.298
  O       23.841    -281.459      75.082
  C       24.282    -279.337      76.216
  N       23.210    -274.330      76.010
  C       22.455    -275.403      76.344
  N       22.808    -276.708      76.356
  C       24.083    -276.866      75.982
  C       24.973    -275.870      75.594
  C       24.494    -274.544      75.618
  N       25.267    -273.462      75.283
  N       26.196    -276.406      75.249
  C       26.052    -277.707      75.438
  N       24.806    -278.026      75.889
  O       29.598    -278.909      78.937
  O       27.929    -279.228      80.866
  H       23.073    -281.021      74.659
  H       29.485    -277.982      79.217
  H       21.433    -275.186      76.643
  H       26.825    -278.444      75.260
  H       23.187    -279.272      76.184
  H       25.162    -280.090      74.314
  H       26.854    -280.341      76.069
  H       24.632    -281.745      77.666
  H       25.865    -280.755      79.609
  H       24.802    -272.572      75.183
  H       26.169    -273.633      74.853
  H       26.782    -282.028      78.772
  P       27.806    -282.536      75.132
  C       27.155    -281.603      72.831
  O       27.471    -282.766      73.579
  O       28.186    -284.011      75.629
  O       28.797    -281.468      75.439
  H       27.465    -284.638      75.485
  H       26.998    -281.895      71.788
  H       27.959    -280.872      72.883
  H       26.222    -281.153      73.209
  H       29.355    -283.009      80.854
  H       27.750    -282.420      80.492
  H       28.689    -281.673      81.763

 3  4  5  6  7  8  9  10  11  12  22  25  29  30  31  32 0
 6-311+G(2d,p)
 ****
 33  36  37 0
 6-311+G(2d,p)
 ****
 1  2  13  14  15  16  17  18  19  20  21  23  24  26 0
 3-21G
 ****
 27  28  34  35  38  39  40  41  42  43  44  45  46  47  48 0
 3-21G
 ****


