%nproc=1
%NoSave
%Mem=1900MB
#P OB98/GEN NMR

erre ene a

0 1
  C      -93.158      57.108     429.978
  O      -92.975      55.749     429.588
  P      -93.311      55.169     428.140
  C      -90.954      55.580     427.068
  O      -92.343      55.875     427.080
  C      -90.487      54.930     425.754
  O      -90.446      55.937     424.708
  C      -89.062      54.394     425.896
  O      -88.837      53.120     426.470
  C      -88.445      54.572     424.518
  O      -88.555      53.399     423.712
  C      -89.264      55.715     423.910
  N      -86.187      58.605     421.020
  C      -86.680      57.340     420.773
  N      -86.267      56.744     419.636
  N      -87.493      56.710     421.578
  C      -87.757      57.384     422.720
  C      -87.312      58.635     423.088
  C      -86.458      59.348     422.161
  O      -86.002      60.474     422.326
  N      -87.772      58.985     424.331
  C      -88.470      57.942     424.725
  N      -88.499      56.944     423.776
  O      -94.759      55.102     427.794
  O      -92.756      53.654     428.210
  H      -88.056      52.686     424.150
  H      -93.345      53.115     427.643
  H      -85.583      59.054     420.353
  H      -88.979      57.859     425.679
  H      -89.612      55.459     422.901
  H      -87.372      54.792     424.602
  H      -85.550      57.123     419.035
  H      -88.523      55.091     426.550
  H      -86.449      55.741     419.557
  H      -91.203      54.177     425.417
  H      -90.764      54.913     427.914
  H      -90.378      56.489     427.255
  P      -87.848      52.789     427.684
  C      -89.763      52.201     429.282
  O      -88.644      53.037     429.050
  O      -86.798      53.996     427.667
  O      -87.149      51.473     427.588
  H      -86.007      53.767     428.190
  H      -90.390      52.648     430.057
  H      -89.420      51.220     429.625
  H      -90.355      52.078     428.371
  H      -92.856      57.230     430.997
  H      -94.190      57.372     429.877
  H      -92.565      57.742     429.352

 3  4  5  6  7  8  9  10  11  12  23  26  30  31 0
 6-311+G(2d,p)
 ****
 33  35  36  37  38 0
 6-311+G(2d,p)
 ****
 1  2  13  14  15  16  17  18  19  20  21  22  24  25 0
 3-21G
 ****
 27  28  29  32  34  39  40  41  42  43  44  45  46  47  48  49 0
 3-21G
 ****


