%nproc=1
%NoSave
%Mem=1900MB
#P OB98/GEN NMR

erre ene a

0 1
  C      177.027     400.111    -534.185
  O      178.091     399.465    -533.512
  H      176.187     399.415    -534.259
  H      177.330     400.401    -535.195
  H      176.704     400.994    -533.625
  P      179.475     400.251    -533.342
  C      178.692     401.153    -531.046
  O      179.189     401.470    -532.344
  C      179.620     401.709    -529.969
  O      180.945     401.162    -530.113
  C      179.786     403.225    -530.009
  O      178.639     403.866    -529.491
  C      181.053     403.385    -529.185
  O      180.770     403.287    -527.780
  C      181.883     402.167    -529.664
  N      182.845     402.488    -530.714
  C      183.995     403.174    -530.303
  O      184.148     403.482    -529.121
  N      184.929     403.505    -531.254
  C      184.759     403.149    -532.489
  N      185.723     403.497    -533.378
  C      183.578     402.399    -532.953
  C      182.665     402.116    -532.023
  O      180.174     400.639    -534.610
  O      180.370     399.262    -532.456
  H      181.640     403.277    -527.333
  H      180.929     398.701    -533.029
  H      183.481     402.111    -533.987
  H      181.765     401.565    -532.282
  H      182.436     401.728    -528.823
  H      181.532     404.351    -529.347
  H      179.998     403.550    -531.034
  H      179.234     401.381    -528.991
  H      186.527     404.002    -533.009
  H      178.648     400.060    -530.979
  H      185.776     403.141    -534.320
  H      177.678     401.547    -530.913
  P      178.460     405.457    -529.580
  C      177.468     405.261    -531.944
  O      178.503     405.816    -531.146
  O      179.393     406.250    -528.728
  O      176.916     405.682    -529.217
  H      176.778     405.604    -528.239
  H      177.599     405.566    -532.961
  H      176.520     405.605    -531.588
  H      177.505     404.193    -531.884

 6  7  8  9  10  11  12  13  14  15  16  26  30  31  32  33  35 0
 6-311+G(2d,p)
 ****
 37  38 0
 6-311+G(2d,p)
 ****
 1  2  3  4  5  17  18  19  20  21  22  23  24  25 0
 3-21G
 ****
 27  28  29  34  36  39  40  41  42  43  44  45  46 0
 3-21G
 ****


