%nproc=1
%NoSave
%Mem=1900MB
#P OB98/GEN NMR

erre ene a

0 1
  C     -409.388    -863.001    -228.011
  O     -410.248    -862.825    -226.890
  P     -411.209    -861.540    -226.852
  C     -409.681    -860.234    -225.227
  O     -410.982    -860.774    -225.460
  C     -409.524    -859.836    -223.748
  O     -410.470    -858.780    -223.444
  C     -409.812    -860.960    -222.734
  O     -408.732    -861.806    -222.351
  C     -410.197    -860.149    -221.501
  O     -409.005    -859.736    -220.799
  C     -410.913    -858.931    -222.074
  N     -414.920    -860.097    -219.122
  C     -413.595    -860.072    -218.874
  N     -412.595    -859.749    -219.716
  C     -413.075    -859.413    -220.926
  C     -414.403    -859.389    -221.329
  C     -415.356    -859.762    -220.354
  N     -416.706    -859.786    -220.611
  N     -414.507    -858.999    -222.647
  C     -413.262    -858.817    -223.032
  N     -412.357    -859.036    -222.031
  O     -412.631    -861.782    -227.234
  O     -410.501    -860.556    -227.900
  H     -408.491    -860.545    -220.633
  H     -411.188    -860.075    -228.396
  H     -413.299    -860.351    -217.870
  H     -412.969    -858.525    -224.039
  H     -410.652    -858.008    -221.540
  H     -410.787    -860.739    -220.789
  H     -410.663    -861.566    -223.064
  H     -408.515    -859.450    -223.588
  H     -409.528    -859.359    -225.859
  H     -417.323    -860.112    -219.879
  H     -417.038    -859.595    -221.547
  H     -408.961    -860.984    -225.544
  P     -408.427    -863.167    -223.138
  C     -410.047    -864.471    -221.550
  O     -408.761    -864.353    -222.104
  O     -407.068    -863.247    -223.747
  O     -409.627    -863.255    -224.185
  H     -410.505    -863.412    -223.778
  H     -410.131    -865.444    -221.054
  H     -410.817    -864.405    -222.327
  H     -410.203    -863.681    -220.804
  H     -408.817    -863.897    -227.885
  H     -408.726    -862.164    -228.087
  H     -409.975    -863.074    -228.903

 3  4  5  6  7  8  9  10  11  12  22  25  29  30  31  32 0
 6-311+G(2d,p)
 ****
 33  36  37 0
 6-311+G(2d,p)
 ****
 1  2  13  14  15  16  17  18  19  20  21  23  24  26 0
 3-21G
 ****
 27  28  34  35  38  39  40  41  42  43  44  45  46  47  48 0
 3-21G
 ****


