%nproc=1
%NoSave
%Mem=1900MB
#P OB98/GEN NMR

erre ene a

0 1
  C     -213.756    -247.896      23.726
  O     -212.758    -247.084      23.141
  H     -214.023    -247.478      24.699
  H     -213.374    -248.909      23.872
  H     -214.651    -247.922      23.097
  P     -212.380    -247.374      21.610
  C     -213.534    -245.362      20.433
  O     -212.317    -245.944      20.877
  C     -213.249    -244.324      19.347
  O     -212.598    -243.176      19.964
  C     -212.328    -244.827      18.227
  O     -212.756    -244.241      16.993
  C     -210.978    -244.249      18.610
  O     -210.077    -244.116      17.518
  C     -211.399    -242.904      19.212
  N     -210.364    -242.322      20.064
  C     -209.743    -241.160      19.613
  O     -210.057    -240.546      18.596
  N     -208.708    -240.706      20.390
  C     -208.234    -241.293      21.526
  O     -207.289    -240.847      22.168
  C     -208.926    -242.520      21.948
  C     -209.940    -242.971      21.208
  O     -213.715    -248.030      21.027
  O     -211.178    -248.232      21.396
  H     -213.697    -249.000      21.139
  H     -209.699    -245.005      17.343
  H     -208.246    -239.865      20.077
  H     -208.569    -243.019      22.838
  H     -210.458    -243.887      21.477
  H     -211.664    -242.198      18.418
  H     -210.500    -244.883      19.367
  H     -212.297    -245.917      18.130
  H     -214.204    -243.969      18.939
  H     -214.031    -244.871      21.275
  H     -214.191    -246.149      20.045
  P     -212.581    -245.120      15.662
  C     -214.948    -244.275      14.919
  O     -213.583    -244.477      14.585
  O     -213.290    -246.485      16.099
  O     -211.160    -245.252      15.231
  H     -214.052    -246.348      16.686
  H     -215.459    -243.841      14.085
  H     -215.016    -243.618      15.761
  H     -215.398    -245.214      15.163

 6  7  8  9  10  11  12  13  14  15  16  27  31  32  33  34  35 0
 6-311+G(2d,p)
 ****
 36  37 0
 6-311+G(2d,p)
 ****
 1  2  3  4  5  17  18  19  20  21  22  23  24  25 0
 3-21G
 ****
 26  28  29  30  38  39  40  41  42  43  44  45 0
 3-21G
 ****


