%nproc=1
%NoSave
%Mem=1900MB
#P OB98/GEN NMR

erre ene a

0 1
  C      431.332     575.458     134.353
  O      432.299     576.510     134.499
  P      433.458     576.316     135.587
  C      432.022     577.126     137.603
  O      432.772     576.071     137.014
  C      431.647     576.785     139.050
  O      430.628     575.775     139.129
  C      432.818     576.262     139.870
  O      433.640     577.312     140.361
  C      432.080     575.568     141.009
  O      431.673     576.556     141.993
  C      430.857     574.981     140.315
  N      429.825     570.119     141.574
  C      429.534     571.290     142.191
  N      429.864     572.548     141.803
  C      430.540     572.523     140.637
  C      430.897     571.404     139.901
  C      430.503     570.154     140.393
  N      430.790     568.957     139.765
  N      431.582     571.763     138.755
  C      431.636     573.087     138.801
  N      431.018     573.596     139.924
  O      434.089     577.782     135.727
  O      434.499     575.311     135.195
  H      431.117     577.219     141.516
  H      435.051     577.718     135.893
  H      428.978     571.211     143.116
  H      432.097     573.729     138.061
  H      429.947     575.045     140.932
  H      432.716     574.842     141.556
  H      433.397     575.513     139.290
  H      431.250     577.714     139.524
  H      431.114     577.326     137.026
  H      430.441     568.105     140.180
  H      431.271     568.986     138.880
  H      432.612     578.068     137.569
  P      435.181     577.305     139.937
  C      435.988     577.315     142.403
  O      435.986     576.646     141.169
  O      435.580     578.836     139.983
  O      435.443     576.698     138.599
  H      436.288     579.034     139.333
  H      436.293     576.618     143.192
  H      434.996     577.714     142.669
  H      436.698     578.145     142.378
  H      430.625     575.726     133.596
  H      430.821     575.312     135.282
  H      431.829     574.553     134.073

 3  4  5  6  7  8  9  10  11  12  22  25  29  30  31  32 0
 6-311+G(2d,p)
 ****
 33  36  37 0
 6-311+G(2d,p)
 ****
 1  2  13  14  15  16  17  18  19  20  21  23  24  26 0
 3-21G
 ****
 27  28  34  35  38  39  40  41  42  43  44  45  46  47  48 0
 3-21G
 ****


