%nproc=1
%NoSave
%Mem=1900MB
#P OB98/GEN NMR

erre ene a

0 1
  C      253.721     777.847     110.885
  O      253.175     778.442     112.046
  H      253.078     777.025     110.557
  H      253.759     778.597     110.089
  H      254.730     777.478     111.075
  P      253.295     777.619     113.419
  C      250.903     777.859     114.399
  O      251.830     777.024     113.726
  C      249.591     777.104     114.649
  O      249.021     776.738     113.368
  C      249.750     775.827     115.487
  O      248.627     775.714     116.372
  C      249.673     774.719     114.448
  O      249.228     773.480     114.997
  C      248.710     775.328     113.444
  N      248.039     770.952     110.939
  C      247.566     771.394     112.124
  N      247.752     772.597     112.696
  C      248.450     773.415     111.876
  C      248.985     773.108     110.636
  C      248.773     771.800     110.171
  N      249.297     771.323     109.000
  N      249.684     774.198     110.139
  C      249.582     775.126     111.064
  N      248.849     774.698     112.141
  O      253.456     778.785     114.506
  O      254.415     776.633     113.482
  H      249.833     773.234     115.733
  H      254.399     779.016     114.601
  H      246.981     770.681     112.696
  H      250.051     776.091     111.033
  H      247.656     775.225     113.740
  H      250.664     774.570     113.999
  H      250.681     775.786     116.066
  H      248.886     777.799     115.130
  H      250.694     778.743     113.777
  H      249.188     770.336     108.793
  H      249.937     771.906     108.472
  H      251.337     778.197     115.347
  P      248.910     775.822     117.947
  C      248.482     773.323     118.536
  O      249.413     774.390     118.474
  O      247.445     775.952     118.575
  O      249.782     776.978     118.326
  H      247.470     776.510     119.376
  H      248.970     772.445     118.905
  H      248.094     773.131     117.558
  H      247.680     773.587     119.193

 6  7  8  9  10  11  12  13  14  15  25  28  32  33  34  35 0
 6-311+G(2d,p)
 ****
 36  39  40 0
 6-311+G(2d,p)
 ****
 1  2  3  4  5  16  17  18  19  20  21  22  23  24 0
 3-21G
 ****
 26  27  29  30  31  37  38  41  42  43  44  45  46  47 0
 3-21G
 ****
 48 0
 3-21G
 ****


