%nproc=1
%NoSave
%Mem=1900MB
#P OB98/GEN NMR

erre ene a

0 1
  C      -81.377    -146.689     112.176
  O      -80.344    -147.650     112.153
  H      -81.280    -146.046     111.298
  H      -81.282    -146.071     113.073
  H      -82.359    -147.169     112.155
  P      -80.468    -148.882     113.171
  C      -78.735    -147.907     114.831
  O      -80.073    -148.330     114.628
  C      -78.334    -148.094     116.295
  O      -79.173    -147.246     117.120
  C      -78.489    -149.535     116.799
  O      -77.403    -149.836     117.680
  C      -79.788    -149.496     117.585
  O      -79.853    -150.509     118.587
  C      -79.764    -148.076     118.138
  N      -83.455    -148.410     121.552
  C      -82.179    -148.939     121.563
  N      -81.836    -149.674     122.642
  N      -81.315    -148.762     120.597
  C      -81.783    -147.975     119.598
  C      -83.025    -147.399     119.469
  C      -83.983    -147.626     120.530
  O      -85.133    -147.204     120.568
  N      -83.128    -146.700     118.293
  C      -81.952    -146.854     117.714
  N      -81.101    -147.614     118.470
  O      -79.226    -149.810     112.772
  O      -81.755    -149.637     113.110
  H      -79.059    -150.414     119.155
  H      -79.550    -150.663     112.426
  H      -84.086    -148.589     122.315
  H      -81.668    -146.449     116.753
  H      -79.156    -147.991     119.048
  H      -80.636    -149.637     116.903
  H      -82.434    -149.811     123.441
  H      -78.518    -150.271     115.993
  H      -80.892    -150.041     122.689
  H      -77.303    -147.742     116.423
  H      -78.652    -146.848     114.565
  H      -78.068    -148.489     114.186
  P      -76.335    -150.922     117.172
  C      -77.381    -152.936     118.423
  O      -77.043    -152.364     117.167
  O      -75.302    -151.014     118.392
  O      -75.648    -150.544     115.901
  H      -74.460    -150.587     118.146
  H      -77.842    -153.889     118.268
  H      -78.061    -152.290     118.938
  H      -76.494    -153.060     119.009

 6  7  8  9  10  11  12  13  14  15  26  29  33  34 0
 6-311+G(2d,p)
 ****
 36  38  39  40  41 0
 6-311+G(2d,p)
 ****
 1  2  3  4  5  16  17  18  19  20  21  22  23  24  25 0
 3-21G
 ****
 27  28  30  31  32  35  37  42  43  44  45  46  47 0
 3-21G
 ****
 48  49 0
 3-21G
 ****


