%nproc=1
%NoSave
%Mem=1900MB
#P OB98/GEN NMR

erre ene a

0 1
  C      414.246     396.956    -226.484
  O      414.243     398.250    -225.915
  P      413.146     399.342    -226.326
  C      411.267     399.152    -224.581
  O      411.733     398.740    -225.855
  C      409.745     399.270    -224.555
  O      409.306     400.180    -225.601
  C      408.994     397.946    -224.753
  O      407.804     398.030    -223.965
  C      408.661     397.977    -226.233
  O      407.609     397.087    -226.577
  C      408.357     399.468    -226.426
  N      408.434     399.866    -227.825
  C      407.226     399.968    -228.518
  O      406.168     399.648    -227.970
  N      407.244     400.366    -229.833
  C      408.381     400.549    -230.429
  N      408.340     400.950    -231.725
  C      409.686     400.328    -229.769
  C      409.639     400.007    -228.477
  O      413.197     399.789    -227.745
  O      413.381     400.526    -225.274
  H      407.674     396.882    -227.536
  H      414.177     401.058    -225.527
  H      410.605     400.440    -230.321
  H      410.539     399.829    -227.910
  H      407.354     399.710    -226.050
  H      409.544     397.689    -226.815
  H      409.580     397.064    -224.475
  H      409.452     399.717    -223.594
  H      407.427     401.103    -232.134
  H      411.697     400.132    -224.360
  H      409.162     401.198    -232.253
  H      411.616     398.451    -223.811
  P      407.345     396.823    -223.010
  C      408.211     397.543    -220.719
  O      408.427     396.715    -221.844
  O      407.048     395.540    -223.718
  O      406.049     397.391    -222.257
  H      405.557     396.647    -221.855
  H      408.830     397.187    -219.888
  H      407.160     397.522    -220.410
  H      408.498     398.573    -220.957
  H      415.056     396.389    -226.075
  H      414.364     397.033    -227.545
  H      413.320     396.467    -226.263

 3  4  5  6  7  8  9  10  11  12  13  23  27  28  29  30  32 0
 6-311+G(2d,p)
 ****
 34  35 0
 6-311+G(2d,p)
 ****
 1  2  14  15  16  17  18  19  20  21  22  24  25  26 0
 3-21G
 ****
 31  33  36  37  38  39  40  41  42  43  44  45  46 0
 3-21G
 ****


