%nproc=1
%NoSave
%Mem=1900MB
#P OB98/GEN NMR

erre ene a

0 1
  C      -58.369    -767.108    -475.412
  O      -59.085    -767.199    -476.649
  P      -59.092    -765.917    -477.620
  C      -60.041    -765.513    -480.014
  O      -60.207    -766.154    -478.752
  C      -60.946    -766.163    -481.064
  O      -60.674    -767.583    -481.194
  C      -62.441    -766.045    -480.739
  O      -62.953    -764.777    -481.145
  C      -63.027    -767.143    -481.617
  O      -63.119    -766.684    -482.973
  C      -61.944    -768.251    -481.497
  N      -64.389    -772.565    -480.514
  C      -64.291    -771.846    -481.687
  N      -64.939    -772.359    -482.762
  N      -63.631    -770.730    -481.804
  C      -63.012    -770.340    -480.644
  C      -63.044    -770.963    -479.416
  C      -63.799    -772.193    -479.295
  O      -63.928    -772.859    -478.280
  N      -62.318    -770.269    -478.496
  C      -61.835    -769.238    -479.161
  N      -62.243    -769.223    -480.468
  O      -57.714    -766.072    -478.427
  O      -59.167    -764.601    -476.899
  H      -62.207    -766.458    -483.259
  H      -57.387    -765.184    -478.712
  H      -64.927    -773.416    -480.471
  H      -61.190    -768.472    -478.735
  H      -61.795    -768.787    -482.443
  H      -64.020    -767.445    -481.296
  H      -65.423    -773.249    -482.762
  H      -62.633    -766.247    -479.682
  H      -64.835    -771.867    -483.631
  H      -60.753    -765.693    -482.031
  H      -58.992    -765.583    -480.334
  H      -60.246    -764.444    -479.906
  P      -63.158    -763.653    -480.024
  C      -62.608    -761.120    -479.858
  O      -62.612    -762.285    -480.662
  O      -62.057    -764.041    -478.924
  O      -64.531    -763.598    -479.433
  H      -62.364    -763.803    -478.030
  H      -62.055    -760.322    -480.392
  H      -62.108    -761.299    -478.899
  H      -63.630    -760.769    -479.686
  H      -58.456    -768.032    -474.880
  H      -58.779    -766.316    -474.820
  H      -57.337    -766.907    -475.611

 3  4  5  6  7  8  9  10  11  12  23  26  30  31 0
 6-311+G(2d,p)
 ****
 33  35  36  37  38 0
 6-311+G(2d,p)
 ****
 1  2  13  14  15  16  17  18  19  20  21  22  24  25 0
 3-21G
 ****
 27  28  29  32  34  39  40  41  42  43  44  45  46  47  48  49 0
 3-21G
 ****


