%nproc=1
%NoSave
%Mem=1900MB
#P OB98/GEN NMR

erre ene a

0 1
  C      797.316     366.332    -194.460
  O      798.522     366.292    -193.704
  P      798.606     366.945    -192.238
  C      799.736     369.055    -193.182
  O      798.613     368.528    -192.493
  C      799.498     370.527    -193.550
  O      798.368     370.580    -194.464
  C      799.114     371.446    -192.385
  O      800.220     371.956    -191.662
  C      798.435     372.584    -193.152
  O      799.435     373.438    -193.730
  C      797.669     371.830    -194.245
  N      792.769     372.928    -195.257
  C      793.930     373.347    -195.825
  N      795.194     373.028    -195.474
  C      795.199     372.138    -194.469
  C      794.117     371.618    -193.801
  C      792.835     372.056    -194.234
  N      791.655     371.599    -193.663
  N      794.508     370.757    -192.797
  C      795.833     370.743    -192.881
  N      796.295     371.555    -193.875
  O      799.715     366.421    -191.397
  O      797.158     366.676    -191.604
  H      798.994     374.263    -193.995
  H      797.199     366.798    -190.641
  H      793.835     374.052    -196.652
  H      796.473     370.164    -192.243
  H      797.667     372.365    -195.195
  H      797.815     373.217    -192.490
  H      798.379     370.970    -191.721
  H      800.378     370.898    -194.083
  H      799.885     368.472    -194.106
  H      790.802     371.877    -194.134
  H      791.696     370.835    -193.021
  H      800.629     368.950    -192.566
  P      799.961     372.380    -190.127
  C      799.223     374.861    -190.568
  O      798.861     373.551    -190.189
  O      801.185     372.718    -189.359
  O      799.145     371.137    -189.545
  H      798.250     371.000    -189.921
  H      798.315     375.462    -190.693
  H      799.785     374.859    -191.500
  H      799.822     375.323    -189.760
  H      797.469     365.846    -195.401
  H      797.033     367.350    -194.626
  H      796.540     365.830    -193.921

 3  4  5  6  7  8  9  10  11  12  22  25  29  30  31  32 0
 6-311+G(2d,p)
 ****
 33  36  37 0
 6-311+G(2d,p)
 ****
 1  2  13  14  15  16  17  18  19  20  21  23  24  26 0
 3-21G
 ****
 27  28  34  35  38  39  40  41  42  43  44  45  46  47  48 0
 3-21G
 ****


