%nproc=1
%NoSave
%Mem=1900MB
#P OB98/GEN NMR

erre ene a

0 1
  C      -59.205     159.975     215.723
  O      -58.775     159.621     214.425
  P      -59.765     158.866     213.414
  C      -59.494     160.562     211.490
  O      -60.372     160.018     212.472
  C      -59.835     162.024     211.206
  O      -59.649     162.827     212.391
  C      -58.972     162.669     210.130
  O      -59.390     162.256     208.842
  C      -59.189     164.146     210.425
  O      -60.410     164.621     209.835
  C      -59.288     164.158     211.966
  N      -58.055     164.611     212.599
  C      -57.674     165.929     212.318
  O      -58.344     166.622     211.553
  N      -56.513     166.411     212.875
  C      -55.789     165.637     213.623
  N      -54.645     166.168     214.135
  C      -56.140     164.233     213.917
  C      -57.273     163.790     213.376
  O      -60.769     157.968     214.056
  O      -58.760     158.096     212.431
  H      -60.207     164.796     208.894
  H      -58.356     157.311     212.874
  H      -55.499     163.624     214.535
  H      -57.605     162.771     213.537
  H      -60.101     164.818     212.293
  H      -58.378     164.766     210.029
  H      -57.919     162.411     210.297
  H      -60.896     162.077     210.924
  H      -54.426     167.125     213.886
  H      -59.604     159.980     210.570
  H      -53.994     165.646     214.698
  H      -58.459     160.465     211.837
  P      -58.467     161.273     207.982
  C      -60.325     159.591     207.427
  O      -59.089     159.800     208.084
  O      -57.002     161.366     208.256
  O      -58.786     161.692     206.468
  H      -57.948     161.746     205.970
  H      -60.470     158.518     207.283
  H      -60.341     160.087     206.453
  H      -61.137     159.979     208.048
  H      -58.408     160.467     216.241
  H      -59.487     159.093     216.258
  H      -60.045     160.634     215.653

 3  4  5  6  7  8  9  10  11  12  13  23  27  28  29  30  32 0
 6-311+G(2d,p)
 ****
 34  35 0
 6-311+G(2d,p)
 ****
 1  2  14  15  16  17  18  19  20  21  22  24  25  26 0
 3-21G
 ****
 31  33  36  37  38  39  40  41  42  43  44  45  46 0
 3-21G
 ****


