%nproc=1
%NoSave
%Mem=1900MB
#P OB98/GEN NMR

erre ene a

0 1
  C     -225.323     175.272      96.012
  O     -226.448     176.050      95.600
  P     -227.466     176.499      96.760
  C     -229.478     175.442      98.010
  O     -228.387     175.237      97.126
  C     -230.807     175.157      97.306
  O     -231.258     176.272      96.516
  C     -230.742     173.969      96.355
  O     -230.835     172.758      97.084
  C     -231.950     174.224      95.462
  O     -233.162     173.727      96.062
  C     -231.989     175.757      95.371
  N     -233.076     177.974      90.943
  C     -233.921     177.408      91.880
  N     -235.239     177.458      91.611
  N     -233.500     176.842      92.983
  C     -232.155     176.863      93.122
  C     -231.221     177.420      92.277
  C     -231.695     178.039      91.057
  O     -230.993     178.577      90.211
  N     -229.951     177.302      92.787
  C     -230.110     176.562      93.869
  N     -231.434     176.323      94.153
  O     -228.462     177.504      96.011
  O     -226.791     177.156      97.920
  H     -233.827     173.582      95.365
  H     -228.306     178.416      96.322
  H     -233.450     178.390      90.107
  H     -229.307     176.196      94.492
  H     -233.013     176.139      95.443
  H     -231.856     173.717      94.496
  H     -235.630     177.882      90.783
  H     -229.820     174.009      95.763
  H     -235.876     177.052      92.287
  H     -231.558     174.970      98.085
  H     -229.470     176.469      98.382
  H     -229.351     174.792      98.882
  P     -229.614     171.725      96.979
  C     -228.250     170.647      95.052
  O     -229.231     171.589      95.432
  O     -230.290     170.319      97.333
  O     -228.472     172.021      97.898
  H     -229.714     169.823      97.945
  H     -228.467     170.301      94.037
  H     -228.236     169.786      95.724
  H     -227.267     171.127      95.059
  H     -224.722     175.035      95.159
  H     -225.664     174.367      96.471
  H     -224.741     175.831      96.714

 3  4  5  6  7  8  9  10  11  12  23  26  30  31 0
 6-311+G(2d,p)
 ****
 33  35  36  37  38 0
 6-311+G(2d,p)
 ****
 1  2  13  14  15  16  17  18  19  20  21  22  24  25 0
 3-21G
 ****
 27  28  29  32  34  39  40  41  42  43  44  45  46  47  48  49 0
 3-21G
 ****


