%nproc=1
%NoSave
%Mem=1900MB
#P OB98/GEN NMR

erre ene a

0 1
  C     -297.875     227.080     -97.586
  O     -297.189     225.843     -97.607
  H     -297.680     227.632     -98.509
  H     -298.948     226.884     -97.513
  H     -297.566     227.670     -96.723
  P     -295.592     225.923     -97.732
  C     -295.445     224.542     -95.546
  O     -295.001     225.691     -96.251
  C     -294.545     224.288     -94.340
  O     -293.263     223.804     -94.820
  C     -294.285     225.540     -93.480
  O     -294.532     225.259     -92.096
  C     -292.802     225.812     -93.659
  O     -292.187     226.334     -92.489
  C     -292.254     224.441     -94.033
  N     -287.345     225.771     -93.683
  C     -288.244     225.423     -92.737
  N     -289.510     224.988     -92.899
  C     -289.810     224.888     -94.210
  C     -288.990     225.186     -95.285
  C     -287.707     225.670     -94.979
  N     -286.809     226.076     -95.942
  N     -289.651     224.969     -96.479
  C     -290.868     224.589     -96.134
  N     -291.009     224.543     -94.768
  O     -295.321     227.479     -98.007
  O     -295.009     225.067     -98.803
  H     -292.189     225.628     -91.818
  H     -294.885     227.572     -98.874
  H     -287.906     225.517     -91.705
  H     -291.681     224.388     -96.814
  H     -292.076     223.819     -93.145
  H     -292.667     226.531     -94.474
  H     -294.889     226.399     -93.789
  H     -294.989     223.493     -93.734
  H     -295.406     223.669     -96.208
  H     -285.958     226.517     -95.633
  H     -287.112     226.103     -96.903
  H     -296.482     224.698     -95.228
  P     -295.501     226.289     -91.324
  C     -297.763     225.004     -91.362
  O     -296.996     226.079     -91.891
  O     -295.063     227.708     -91.911
  O     -295.371     226.243     -89.845
  H     -294.801     228.301     -91.187
  H     -298.726     224.989     -91.829
  H     -297.881     225.135     -90.307
  H     -297.260     224.079     -91.553

 6  7  8  9  10  11  12  13  14  15  25  28  32  33  34  35 0
 6-311+G(2d,p)
 ****
 36  39  40 0
 6-311+G(2d,p)
 ****
 1  2  3  4  5  16  17  18  19  20  21  22  23  24 0
 3-21G
 ****
 26  27  29  30  31  37  38  41  42  43  44  45  46  47  48 0
 3-21G
 ****


