%nproc=1
%NoSave
%Mem=1900MB
#P OB98/GEN NMR

erre ene a

0 1
  C     -267.730     203.092    -791.133
  O     -266.595     202.937    -790.299
  P     -266.044     201.450    -790.053
  C     -265.446     201.302    -792.581
  O     -266.105     200.702    -791.475
  C     -264.663     200.251    -793.361
  O     -263.525     199.789    -792.595
  C     -265.456     198.998    -793.696
  O     -266.286     199.176    -794.837
  C     -264.339     198.016    -793.996
  O     -263.850     198.222    -795.338
  C     -263.273     198.413    -792.971
  N     -261.505     194.162    -790.868
  C     -261.113     194.805    -792.032
  N     -260.154     194.195    -792.762
  N     -261.613     195.943    -792.433
  C     -262.574     196.429    -791.603
  C     -263.040     195.887    -790.429
  C     -262.484     194.625    -790.007
  O     -262.829     193.972    -789.018
  N     -264.004     196.674    -789.863
  C     -264.123     197.694    -790.691
  N     -263.304     197.574    -791.784
  O     -267.223     200.754    -789.221
  O     -264.734     201.375    -789.340
  H     -264.593     198.035    -795.943
  H     -266.896     199.945    -788.786
  H     -261.099     193.284    -790.609
  H     -264.791     198.535    -790.550
  H     -262.266     198.372    -793.391
  H     -264.664     196.971    -793.939
  H     -259.775     193.287    -792.540
  H     -266.027     198.650    -792.831
  H     -259.896     194.613    -793.647
  H     -264.281     200.725    -794.277
  H     -264.768     202.076    -792.220
  H     -266.194     201.778    -793.228
  P     -267.550     198.196    -794.969
  C     -268.727     199.803    -793.297
  O     -268.437     198.465    -793.656
  O     -266.919     196.748    -794.710
  O     -268.259     198.276    -796.277
  H     -267.447     196.061    -795.149
  H     -269.540     199.797    -792.564
  H     -269.043     200.386    -794.168
  H     -267.846     200.263    -792.842
  H     -267.981     204.130    -791.205
  H     -268.555     202.553    -790.716
  H     -267.511     202.710    -792.108

 3  4  5  6  7  8  9  10  11  12  23  26  30  31 0
 6-311+G(2d,p)
 ****
 33  35  36  37  38 0
 6-311+G(2d,p)
 ****
 1  2  13  14  15  16  17  18  19  20  21  22  24  25 0
 3-21G
 ****
 27  28  29  32  34  39  40  41  42  43  44  45  46  47  48  49 0
 3-21G
 ****


