%nproc=1
%NoSave
%Mem=1900MB
#P OB98/GEN NMR

erre ene a

0 1
  C      127.228     450.015     200.766
  O      128.197     450.496     199.861
  H      127.688     449.936     201.756
  H      126.889     449.019     200.470
  H      126.378     450.699     200.825
  P      127.807     450.668     198.313
  C      129.996     449.694     197.387
  O      129.211     450.868     197.543
  C      131.482     450.036     197.277
  O      131.915     450.720     198.485
  C      132.387     448.810     197.092
  O      133.324     449.051     196.038
  C      133.130     448.708     198.417
  O      134.376     448.026     198.309
  C      133.211     450.189     198.814
  N      133.541     450.360     200.223
  C      134.884     450.173     200.568
  O      135.711     449.888     199.703
  N      135.248     450.259     201.888
  C      134.337     450.463     202.793
  N      134.759     450.510     204.084
  C      132.903     450.638     202.474
  C      132.578     450.576     201.183
  O      126.782     451.717     198.039
  O      127.354     449.208     197.838
  H      134.825     448.060     199.185
  H      126.781     449.295     197.040
  H      132.186     450.802     203.266
  H      131.549     450.692     200.852
  H      133.961     450.716     198.212
  H      132.509     448.163     199.138
  H      131.837     447.897     196.875
  H      131.614     450.752     196.455
  H      135.749     450.378     204.256
  H      129.658     449.164     196.490
  H      134.145     450.637     204.872
  H      129.840     449.054     198.262
  P      133.455     447.899     194.927
  C      136.022     448.282     194.991
  O      134.867     448.085     194.186
  O      132.380     448.325     193.823
  O      133.187     446.530     195.457
  H      131.628     447.700     193.832
  H      136.881     448.389     194.362
  H      136.155     447.439     195.636
  H      135.899     449.166     195.581

 6  7  8  9  10  11  12  13  14  15  16  26  30  31  32  33  35 0
 6-311+G(2d,p)
 ****
 37  38 0
 6-311+G(2d,p)
 ****
 1  2  3  4  5  17  18  19  20  21  22  23  24  25 0
 3-21G
 ****
 27  28  29  34  36  39  40  41  42  43  44  45  46 0
 3-21G
 ****


