%nproc=1
%NoSave
%Mem=1900MB
#P OB98/GEN NMR

erre ene a

0 1
  C       57.695     -46.118      91.368
  O       58.000     -44.740      91.354
  P       58.853     -44.078      90.166
  C       60.888     -44.827      91.550
  O       60.303     -43.783      90.785
  C       62.359     -45.034      91.180
  O       62.993     -45.887      92.173
  C       62.588     -45.675      89.804
  O       63.797     -45.105      89.293
  C       62.794     -47.136      90.156
  O       63.449     -47.862      89.121
  C       63.573     -47.009      91.472
  N       63.523     -48.236      92.259
  C       64.333     -49.290      91.829
  O       64.988     -49.188      90.788
  N       64.343     -50.456      92.555
  C       63.534     -50.592      93.560
  N       63.593     -51.766      94.245
  C       62.572     -49.550      93.967
  C       62.629     -48.405      93.292
  O       58.207     -42.914      89.493
  O       59.142     -45.305      89.182
  H       63.643     -48.766      89.454
  H       58.336     -45.516      88.645
  H       61.879     -49.730      94.776
  H       61.964     -47.582      93.518
  H       64.626     -46.766      91.276
  H       61.823     -47.615      90.334
  H       61.763     -45.522      89.107
  H       62.856     -44.057      91.226
  H       64.277     -52.448      93.940
  H       60.338     -45.750      91.336
  H       63.069     -51.940      95.087
  H       60.780     -44.614      92.617
  P       63.809     -44.265      87.929
  C       63.690     -46.088      86.137
  O       64.525     -45.175      86.824
  O       64.349     -42.875      88.046
  O       62.278     -44.252      87.455
  H       62.151     -43.558      86.780
  H       64.206     -46.439      85.241
  H       62.748     -45.615      85.842
  H       63.477     -46.947      86.784
  H       57.123     -46.348      92.242
  H       58.603     -46.684      91.377
  H       57.128     -46.367      90.495

 3  4  5  6  7  8  9  10  11  12  13  23  27  28  29  30  32 0
 6-311+G(2d,p)
 ****
 34  35 0
 6-311+G(2d,p)
 ****
 1  2  14  15  16  17  18  19  20  21  22  24  25  26 0
 3-21G
 ****
 31  33  36  37  38  39  40  41  42  43  44  45  46 0
 3-21G
 ****


