%nproc=1
%NoSave
%Mem=1900MB
#P OB98/GEN NMR

erre ene a

0 1
  C      433.655    -153.262    -413.460
  O      432.865    -152.633    -414.447
  H      433.054    -154.027    -412.962
  H      433.967    -152.524    -412.719
  H      434.534    -153.738    -413.904
  P      433.632    -151.769    -415.559
  C      434.434    -153.778    -416.994
  O      433.599    -152.632    -416.915
  C      435.048    -153.896    -418.389
  O      435.985    -155.015    -418.391
  C      434.022    -154.141    -419.509
  O      434.446    -153.441    -420.685
  C      434.160    -155.630    -419.769
  O      433.723    -155.995    -421.074
  C      435.657    -155.821    -419.538
  N      437.150    -159.965    -421.941
  C      437.088    -158.655    -422.368
  N      437.419    -158.409    -423.653
  N      436.728    -157.662    -421.596
  C      436.445    -158.041    -420.326
  C      436.462    -159.302    -419.785
  C      436.846    -160.396    -420.653
  O      436.901    -161.582    -420.339
  N      436.049    -159.278    -418.477
  C      435.759    -158.009    -418.240
  N      435.984    -157.221    -419.334
  O      435.159    -151.866    -415.087
  O      433.181    -150.353    -415.693
  H      432.776    -155.771    -421.151
  H      435.387    -151.090    -414.543
  H      437.417    -160.696    -422.579
  H      435.372    -157.619    -417.310
  H      436.260    -155.472    -420.387
  H      433.572    -156.195    -419.035
  H      437.734    -159.118    -424.299
  H      433.003    -153.845    -419.249
  H      437.414    -157.448    -423.969
  H      435.633    -152.990    -418.590
  H      433.836    -154.672    -416.791
  H      435.221    -153.703    -416.235
  P      433.359    -152.563    -421.473
  C      433.483    -150.326    -420.152
  O      433.768    -151.015    -421.360
  O      432.064    -152.672    -420.539
  O      433.076    -153.049    -422.856
  H      431.259    -152.674    -421.087
  H      433.814    -149.312    -420.233
  H      433.992    -150.803    -419.341
  H      432.429    -150.344    -419.971

 6  7  8  9  10  11  12  13  14  15  26  29  33  34 0
 6-311+G(2d,p)
 ****
 36  38  39  40  41 0
 6-311+G(2d,p)
 ****
 1  2  3  4  5  16  17  18  19  20  21  22  23  24  25 0
 3-21G
 ****
 27  28  30  31  32  35  37  42  43  44  45  46  47 0
 3-21G
 ****
 48  49 0
 3-21G
 ****


