%nproc=1
%NoSave
%Mem=1900MB
#P OB98/GEN NMR

erre ene a

0 1
  C     -167.752     197.944     109.901
  O     -168.397     197.181     108.902
  H     -168.196     197.694     110.870
  H     -167.897     199.012     109.719
  H     -166.685     197.710     109.936
  P     -167.929     197.366     107.377
  C     -167.907     199.427     105.805
  O     -168.429     198.846     106.989
  C     -168.992     200.221     105.084
  O     -169.959     199.346     104.461
  C     -169.825     201.130     105.982
  O     -169.138     202.293     106.415
  C     -170.968     201.453     105.039
  O     -170.533     202.414     104.060
  C     -171.220     200.070     104.394
  N     -172.279     199.319     105.068
  C     -173.595     199.622     104.701
  O     -173.828     200.487     103.857
  N     -174.627     198.958     105.322
  C     -174.368     198.086     106.247
  N     -175.428     197.465     106.835
  C     -172.997     197.753     106.681
  C     -172.015     198.391     106.056
  O     -168.335     196.283     106.430
  O     -166.345     197.577     107.466
  H     -169.687     202.088     103.701
  H     -166.002     197.685     106.545
  H     -172.837     197.040     107.476
  H     -170.978     198.205     106.323
  H     -171.478     200.174     103.333
  H     -171.839     201.878     105.545
  H     -170.227     200.574     106.838
  H     -168.504     200.788     104.279
  H     -176.354     197.716     106.519
  H     -167.523     198.621     105.171
  H     -175.324     196.830     107.616
  H     -167.087     200.107     106.050
  P     -169.322     202.717     107.956
  C     -171.372     203.349     109.446
  O     -170.884     203.007     108.159
  O     -168.644     204.162     108.015
  O     -168.738     201.763     108.952
  H     -167.732     204.101     108.365
  H     -172.429     203.507     109.396
  H     -170.893     204.245     109.783
  H     -171.162     202.554     110.130

 6  7  8  9  10  11  12  13  14  15  16  26  30  31  32  33  35 0
 6-311+G(2d,p)
 ****
 37  38 0
 6-311+G(2d,p)
 ****
 1  2  3  4  5  17  18  19  20  21  22  23  24  25 0
 3-21G
 ****
 27  28  29  34  36  39  40  41  42  43  44  45  46 0
 3-21G
 ****


