%nproc=1
%NoSave
%Mem=1900MB
#P OB98/GEN NMR

erre ene a

0 1
  C      182.320    -236.219    -152.985
  O      183.346    -236.017    -152.030
  H      182.052    -237.279    -153.015
  H      181.441    -235.644    -152.678
  H      182.636    -235.882    -153.975
  P      184.815    -236.517    -152.424
  C      185.413    -234.693    -154.173
  O      185.065    -236.052    -153.942
  C      186.711    -234.597    -154.974
  O      186.567    -235.404    -156.178
  C      187.091    -233.173    -155.407
  O      188.513    -233.025    -155.297
  C      186.695    -233.134    -156.871
  O      187.442    -232.176    -157.613
  C      186.965    -234.572    -157.286
  N      187.458    -236.451    -161.989
  C      188.277    -236.467    -160.919
  N      188.046    -235.993    -159.677
  C      186.796    -235.512    -159.582
  C      185.835    -235.431    -160.582
  C      186.218    -235.922    -161.844
  N      185.410    -235.841    -162.955
  N      184.689    -234.824    -160.104
  C      184.961    -234.519    -158.843
  N      186.225    -234.915    -158.484
  O      184.623    -238.105    -152.544
  O      185.904    -236.162    -151.457
  H      188.389    -232.293    -157.412
  H      184.750    -238.518    -151.671
  H      189.259    -236.914    -161.083
  H      184.303    -233.992    -158.170
  H      188.032    -234.767    -157.498
  H      185.634    -232.892    -156.960
  H      186.595    -232.385    -154.823
  H      187.520    -235.049    -154.380
  H      185.556    -234.189    -153.206
  H      185.808    -236.117    -163.847
  H      184.535    -235.348    -162.892
  H      184.597    -234.198    -154.711
  P      189.085    -232.202    -154.042
  C      189.602    -234.218    -152.473
  O      188.809    -233.061    -152.714
  O      188.064    -230.980    -153.915
  O      190.489    -231.734    -154.222
  H      188.526    -230.192    -153.583
  H      189.296    -234.675    -151.555
  H      190.632    -233.937    -152.405
  H      189.474    -234.912    -153.277

 6  7  8  9  10  11  12  13  14  15  25  28  32  33  34  35 0
 6-311+G(2d,p)
 ****
 36  39  40 0
 6-311+G(2d,p)
 ****
 1  2  3  4  5  16  17  18  19  20  21  22  23  24 0
 3-21G
 ****
 26  27  29  30  31  37  38  41  42  43  44  45  46  47 0
 3-21G
 ****
 48 0
 3-21G
 ****


