%nproc=1
%NoSave
%Mem=1900MB
#P OB98/GEN NMR

erre ene a

0 1
  C      354.252     353.927    -149.906
  O      355.607     353.959    -149.450
  P      356.177     352.577    -148.858
  C      358.623     353.200    -149.454
  O      357.707     352.828    -148.433
  C      360.046     353.288    -148.901
  O      360.200     354.466    -148.050
  C      360.468     352.066    -148.061
  O      361.866     351.856    -148.310
  C      360.236     352.562    -146.645
  O      360.883     351.773    -145.655
  C      360.731     354.002    -146.786
  N      361.730     355.395    -141.979
  C      362.309     354.481    -142.791
  N      361.977     354.170    -144.063
  C      360.935     354.906    -144.482
  C      360.241     355.872    -143.762
  C      360.675     356.110    -142.443
  N      360.079     357.015    -141.599
  N      359.210     356.400    -144.529
  C      359.250     355.708    -145.658
  N      360.323     354.862    -145.705
  O      356.282     351.631    -150.143
  O      355.318     351.988    -147.783
  H      360.629     350.836    -145.768
  H      355.515     351.032    -150.192
  H      363.145     353.938    -142.367
  H      358.532     355.789    -146.462
  H      361.823     354.056    -146.846
  H      359.163     352.544    -146.423
  H      359.922     351.156    -148.309
  H      360.739     353.412    -149.744
  H      358.337     354.161    -149.881
  H      360.459     357.110    -140.674
  H      359.285     357.557    -141.909
  H      358.555     352.471    -150.275
  P      362.349     350.420    -148.840
  C      364.181     351.611    -150.191
  O      363.899     350.632    -149.208
  O      361.681     350.415    -150.303
  O      361.988     349.253    -147.990
  H      361.879     351.233    -150.786
  H      365.262     351.710    -150.280
  H      363.763     352.578    -149.889
  H      363.763     351.303    -151.156
  H      353.978     354.892    -150.277
  H      353.608     353.661    -149.094
  H      354.156     353.204    -150.689

 3  4  5  6  7  8  9  10  11  12  22  25  29  30  31  32 0
 6-311+G(2d,p)
 ****
 33  36  37 0
 6-311+G(2d,p)
 ****
 1  2  13  14  15  16  17  18  19  20  21  23  24  26 0
 3-21G
 ****
 27  28  34  35  38  39  40  41  42  43  44  45  46  47  48 0
 3-21G
 ****


