%nproc=1
%NoSave
%Mem=1900MB
#P OB98/GEN NMR

erre ene a

0 1
  C      451.822    -166.251     158.190
  O      451.244    -167.214     159.049
  H      452.629    -166.727     157.624
  H      452.240    -165.433     158.776
  H      451.073    -165.868     157.490
  P      449.924    -166.776     159.845
  C      449.326    -164.806     161.483
  O      450.341    -165.541     160.794
  C      449.659    -164.736     162.975
  O      450.893    -164.018     163.200
  C      448.632    -163.968     163.795
  O      447.419    -164.664     163.944
  C      449.413    -163.789     165.091
  O      449.381    -164.985     165.879
  C      450.840    -163.522     164.560
  N      451.208    -162.114     164.630
  C      451.510    -161.629     165.917
  O      451.474    -162.375     166.892
  N      451.827    -160.287     166.054
  C      451.857    -159.520     165.016
  N      452.170    -158.209     165.215
  C      451.572    -159.999     163.644
  C      451.252    -161.282     163.533
  O      449.725    -167.974     160.890
  O      448.727    -166.491     159.000
  H      448.435    -165.211     166.009
  H      450.527    -168.161     161.426
  H      451.627    -159.316     162.802
  H      451.022    -161.724     162.561
  H      451.586    -164.099     165.138
  H      448.995    -162.996     165.709
  H      448.475    -162.973     163.366
  H      449.785    -165.765     163.345
  H      452.337    -157.913     166.177
  H      448.336    -165.257     161.323
  H      452.192    -157.509     164.482
  H      449.301    -163.798     161.053
  P      446.260    -164.087     164.891
  C      446.101    -163.361     167.360
  O      446.876    -164.045     166.372
  O      444.952    -164.781     164.791
  O      446.204    -162.529     164.509
  H      447.037    -162.042     164.650
  H      446.609    -163.399     168.301
  H      445.145    -163.832     167.452
  H      445.969    -162.340     167.066

 6  7  8  9  10  11  12  13  14  15  16  26  30  31  32  33  35 0
 6-311+G(2d,p)
 ****
 37  38 0
 6-311+G(2d,p)
 ****
 1  2  3  4  5  17  18  19  20  21  22  23  24  25 0
 3-21G
 ****
 27  28  29  34  36  39  40  41  42  43  44  45  46 0
 3-21G
 ****


