%nproc=1
%NoSave
%Mem=1900MB
#P OB98/GEN NMR

erre ene a

0 1
  C     -295.311     312.063    -169.275
  O     -294.660     313.339    -169.227
  P     -293.052     313.317    -169.282
  C     -292.544     312.731    -166.799
  O     -292.530     312.295    -168.156
  C     -292.759     311.569    -165.828
  O     -291.545     310.780    -165.750
  C     -293.117     311.982    -164.397
  O     -294.062     311.042    -163.867
  C     -291.813     311.795    -163.641
  O     -292.025     311.622    -162.241
  C     -291.255     310.570    -164.360
  N     -287.683     308.812    -161.236
  C     -289.057     308.699    -161.157
  N     -289.547     308.044    -160.082
  N     -289.877     309.185    -162.055
  C     -289.244     309.784    -163.093
  C     -287.894     309.953    -163.287
  C     -286.999     309.445    -162.265
  O     -285.773     309.563    -162.253
  N     -287.635     310.614    -164.464
  C     -288.827     310.857    -164.970
  N     -289.834     310.379    -164.174
  O     -292.649     314.760    -168.716
  O     -292.500     313.096    -170.649
  H     -292.588     312.361    -161.943
  H     -292.094     315.229    -169.365
  H     -287.101     308.441    -160.514
  H     -289.017     311.391    -165.890
  H     -291.765     309.654    -164.041
  H     -291.178     312.676    -163.787
  H     -288.970     307.590    -159.389
  H     -293.513     313.001    -164.305
  H     -290.553     307.911    -160.032
  H     -293.538     310.920    -166.241
  H     -293.343     313.468    -166.663
  H     -291.594     313.232    -166.584
  P     -295.600     311.271    -164.259
  C     -296.606     312.403    -162.142
  O     -296.071     312.567    -163.444
  O     -296.356     310.063    -163.530
  O     -295.856     311.296    -165.731
  H     -297.178     309.839    -164.010
  H     -296.455     311.387    -161.760
  H     -297.679     312.610    -162.170
  H     -296.125     313.110    -161.469
  H     -296.371     312.202    -169.232
  H     -294.995     311.470    -168.443
  H     -295.053     311.565    -170.186

 3  4  5  6  7  8  9  10  11  12  23  26  30  31  33  0
 6-311+G(2d,p)
 ****
 35  36  37  38 0
 6-311+G(2d,p)
 ****
 1  2  13  14  15  16  17  18  19  20  21  22  24  25  27  28  29 0
 3-21G
 ****
 32  34  39  40  41  42  43  44  45  46  47  48  49 0
 3-21G
 ****


