%nproc=1
%NoSave
%Mem=1900MB
#P OB98/GEN NMR

erre ene a

0 1
  C      -43.284     -16.781     150.583
  O      -42.942     -18.054     151.143
  P      -42.371     -18.072     152.643
  C      -40.225     -17.048     153.747
  O      -41.108     -17.085     152.632
  C      -38.827     -17.493     153.323
  O      -38.757     -18.938     153.234
  C      -38.400     -16.982     151.955
  O      -38.059     -15.607     151.999
  C      -37.238     -17.920     151.648
  O      -36.048     -17.482     152.320
  C      -37.731     -19.249     152.261
  N      -38.212     -20.197     151.263
  C      -37.462     -20.278     150.093
  O      -36.467     -19.582     149.882
  N      -37.907     -21.173     149.159
  C      -39.021     -21.955     149.266
  O      -39.366     -22.747     148.398
  C      -39.800     -21.790     150.504
  C      -39.368     -20.931     151.431
  O      -41.735     -19.535     152.714
  O      -43.416     -17.783     153.667
  H      -41.343     -19.822     151.871
  H      -35.382     -18.187     152.192
  H      -37.371     -21.255     148.310
  H      -40.705     -22.375     150.611
  H      -39.930     -20.794     152.351
  H      -36.918     -19.729     152.820
  H      -37.010     -17.968     150.576
  H      -39.206     -17.142     151.229
  H      -38.115     -17.160     154.090
  H      -40.591     -17.712     154.534
  H      -40.210     -16.031     154.151
  P      -38.832     -14.636     150.975
  C      -39.092     -14.656     148.373
  O      -38.346     -15.049     149.505
  O      -38.091     -13.241     151.251
  O      -40.310     -14.600     151.182
  H      -37.126     -13.331     151.315
  H      -38.448     -14.717     147.491
  H      -39.459     -13.633     148.469
  H      -39.938     -15.338     148.239
  H      -43.649     -16.916     149.586
  H      -42.416     -16.155     150.564
  H      -44.043     -16.321     151.181

 3  4  5  6  7  8  9  10  11  12  13  24  28  29  30  31  32 0
 6-311+G(2d,p)
 ****
 33  34 0
 6-311+G(2d,p)
 ****
 1  2  14  15  16  17  18  19  20  21  22  23  25  26  27 0
 3-21G
 ****
 35  36  37  38  39  40  41  42  43  44  45 0
 3-21G
 ****


