%nproc=1
%NoSave
%Mem=1900MB
#P OB98/GEN NMR

erre ene a

0 1
  C      -98.793     353.873    -262.379
  O      -97.971     353.399    -263.428
  H      -99.408     353.044    -262.015
  H      -99.452     354.667    -262.741
  H      -98.177     354.243    -261.556
  P      -97.009     354.477    -264.130
  C      -95.211     354.334    -265.971
  O      -96.244     353.643    -265.272
  C      -94.922     353.643    -267.307
  O      -94.315     352.351    -267.035
  C      -96.175     353.396    -268.156
  O      -95.860     353.604    -269.533
  C      -96.487     351.927    -267.914
  O      -97.219     351.345    -268.990
  C      -95.091     351.343    -267.714
  N      -95.304     346.251    -267.991
  C      -95.146     347.203    -268.938
  N      -95.081     348.543    -268.772
  C      -95.155     348.863    -267.468
  C      -95.324     348.008    -266.393
  C      -95.409     346.636    -266.690
  N      -95.593     345.663    -265.744
  N      -95.393     348.721    -265.211
  C      -95.264     349.988    -265.565
  N      -95.131     350.124    -266.924
  O      -96.134     355.258    -263.207
  O      -98.055     355.340    -264.975
  H      -96.647     351.348    -269.784
  H      -98.703     354.771    -265.432
  H      -95.066     346.842    -269.962
  H      -95.269     350.833    -264.885
  H      -94.589     351.103    -268.665
  H      -97.084     351.818    -267.000
  H      -97.007     354.041    -267.863
  H      -94.179     354.238    -267.854
  H      -94.298     354.361    -265.367
  H      -95.628     344.700    -266.042
  H      -95.650     345.927    -264.763
  H      -95.552     355.359    -266.142
  P      -95.895     355.100    -270.110
  C      -94.621     356.459    -271.902
  O      -94.984     355.162    -271.431
  O      -95.664     356.187    -269.115
  O      -97.377     355.194    -270.717
  H      -97.731     356.094    -270.560
  H      -94.019     356.364    -272.781
  H      -94.067     356.972    -271.144
  H      -95.505     357.015    -272.134

 6  7  8  9  10  11  12  13  14  15  25  28  32  33  34  35 0
 6-311+G(2d,p)
 ****
 36  39  40 0
 6-311+G(2d,p)
 ****
 1  2  3  4  5  16  17  18  19  20  21  22  23  24 0
 3-21G
 ****
 26  27  29  30  31  37  38  41  42  43  44  45  46  47 0
 3-21G
 ****
 48 0
 3-21G
 ****


