%nproc=1
%NoSave
%Mem=1900MB
#P OB98/GEN NMR

erre ene a

0 1
  C       10.864     972.709    -897.750
  O       11.672     973.558    -896.900
  P       12.775     974.483    -897.620
  C       11.732     976.772    -896.890
  O       12.840     975.887    -896.820
  C       11.793     977.817    -895.760
  O       11.331     977.258    -894.480
  C       13.218     978.370    -895.500
  O       13.567     979.397    -896.410
  C       13.046     978.902    -894.080
  O       12.426     980.223    -894.150
  C       12.107     977.878    -893.420
  N       15.048     977.062    -889.380
  C       14.445     978.180    -889.810
  N       14.646     979.334    -889.090
  N       13.726     978.296    -890.920
  C       13.579     977.118    -891.560
  C       14.087     975.875    -891.190
  C       14.932     975.801    -889.990
  O       15.493     974.798    -889.560
  N       13.727     974.870    -892.080
  C       12.963     975.506    -892.970
  N       12.854     976.857    -892.670
  O       12.035     974.905    -898.980
  O       14.112     973.815    -897.900
  H       13.027     980.807    -894.630
  H       12.696     975.091    -899.690
  H       15.612     977.029    -888.550
  H       12.481     975.024    -893.810
  H       11.420     978.366    -892.730
  H       14.031     979.058    -893.590
  H       15.209     979.314    -888.220
  H       13.957     977.551    -895.500
  H       14.224     980.175    -889.390
  H       11.123     978.650    -896.020
  H       10.772     976.211    -896.810
  H       11.729     977.256    -897.880
  P       15.083     979.887    -896.460
  C       15.252     979.334    -899.010
  O       15.351     980.331    -898.000
  O       15.911     978.527    -896.310
  O       15.450     980.918    -895.420
  H       16.735     978.695    -895.830
  H       15.325     979.838    -900.000
  H       14.322     978.786    -898.950
  H       16.093     978.616    -898.930
  H       10.177     972.152    -897.148
  H       11.498     972.034    -898.285
  H       10.320     973.314    -898.445

 3  4  5  6  7  8  9  10  11  12  23  26  30  31 0
 6-311+G(2d,p)
 ****
 33  35  36  37  38 0
 6-311+G(2d,p)
 ****
 1  2  13  14  15  16  17  18  19  20  21  22  24  25 0
 3-21G
 ****
 27  28  29  32  34  39  40  41  42  43  44  45  46  47  48  49 0
 3-21G
 ****


