%nproc=1
%NoSave
%Mem=1900MB
#P OB98/GEN NMR

erre ene a

0 1
  C      -85.336      53.492    -336.652
  O      -85.752      53.216    -337.973
  H      -85.569      54.534    -336.421
  H      -84.256      53.343    -336.556
  H      -85.865      52.844    -335.949
  P      -85.392      51.758    -338.548
  C      -86.387      50.403    -340.543
  O      -86.537      51.495    -339.646
  C      -87.746      50.005    -341.111
  O      -88.588      49.453    -340.071
  C      -88.548      51.159    -341.705
  O      -88.103      51.544    -342.996
  C      -89.926      50.523    -341.749
  O      -89.987      49.576    -342.833
  C      -89.964      49.809    -340.382
  N      -90.530      50.644    -339.316
  C      -91.878      50.428    -338.999
  O      -92.536      49.579    -339.596
  N      -92.462      51.211    -338.032
  C      -91.758      52.112    -337.414
  N      -92.394      52.857    -336.468
  C      -90.337      52.365    -337.709
  C      -89.792      51.606    -338.659
  O      -85.816      50.775    -337.357
  O      -83.996      51.573    -339.038
  H      -90.782      49.032    -342.683
  H      -85.772      49.836    -337.663
  H      -89.798      53.138    -337.179
  H      -88.749      51.732    -338.926
  H      -90.540      48.878    -340.437
  H      -90.730      51.242    -341.911
  H      -88.578      52.020    -341.029
  H      -87.579      49.211    -341.849
  H      -93.382      52.701    -336.332
  H      -85.947      49.564    -339.993
  H      -91.979      53.676    -336.046
  H      -85.720      50.681    -341.366
  P      -88.820      52.814    -343.672
  C      -88.082      54.616    -345.402
  O      -87.686      53.617    -344.468
  O      -89.138      53.759    -342.424
  O      -90.051      52.495    -344.462
  H      -89.970      54.253    -342.562
  H      -87.212      55.055    -345.845
  H      -88.646      55.373    -344.897
  H      -88.685      54.171    -346.166

 6  7  8  9  10  11  12  13  14  15  16  26  30  31  32  33  35 0
 6-311+G(2d,p)
 ****
 37  38 0
 6-311+G(2d,p)
 ****
 1  2  3  4  5  17  18  19  20  21  22  23  24  25 0
 3-21G
 ****
 27  28  29  34  36  39  40  41  42  43  44  45  46 0
 3-21G
 ****


