%nproc=1
%NoSave
%Mem=1900MB
#P OB98/GEN NMR

erre ene a

0 1
  C     -193.785    -161.796    -365.784
  O     -193.790    -162.104    -364.405
  P     -192.422    -162.134    -363.570
  C     -193.810    -162.889    -361.532
  O     -192.673    -163.147    -362.347
  C     -194.191    -164.137    -360.740
  O     -194.732    -165.163    -361.617
  C     -193.016    -164.813    -360.046
  O     -192.381    -164.103    -358.996
  C     -193.611    -166.167    -359.706
  O     -194.410    -166.105    -358.522
  C     -194.509    -166.435    -360.947
  N     -193.918    -167.426    -361.841
  C     -194.125    -168.760    -361.499
  O     -194.765    -169.112    -360.504
  N     -193.552    -169.683    -362.323
  C     -192.756    -169.417    -363.407
  O     -192.232    -170.301    -364.073
  C     -192.557    -167.986    -363.712
  C     -193.136    -167.075    -362.930
  O     -191.889    -160.799    -363.173
  O     -191.436    -162.980    -364.514
  H     -194.640    -167.021    -358.274
  H     -191.741    -163.887    -364.711
  H     -193.673    -170.656    -362.083
  H     -191.952    -167.741    -364.570
  H     -193.006    -166.017    -363.133
  H     -195.499    -166.800    -360.629
  H     -192.840    -166.923    -359.533
  H     -192.233    -164.993    -360.796
  H     -194.986    -163.865    -360.035
  H     -194.651    -162.607    -362.179
  H     -193.600    -162.040    -360.865
  P     -190.803    -164.156    -358.730
  C     -191.272    -163.168    -356.377
  O     -190.564    -164.116    -357.148
  O     -189.947    -163.267    -359.578
  O     -190.465    -165.685    -359.077
  H     -189.559    -165.741    -359.431
  H     -190.951    -163.253    -355.334
  H     -192.351    -163.364    -356.426
  H     -191.061    -162.146    -356.730
  H     -194.786    -161.826    -366.160
  H     -193.186    -162.512    -366.307
  H     -193.379    -160.817    -365.929

 3  4  5  6  7  8  9  10  11  12  13  23  28  29  30  31  32 0
 6-311+G(2d,p)
 ****
 33  34 0
 6-311+G(2d,p)
 ****
 1  2  14  15  16  17  18  19  20  21  22  24  25  26  27 0
 3-21G
 ****
 35  36  37  38  39  40  41  42  43  44  45 0
 3-21G
 ****


