%nproc=1
%NoSave
%Mem=1900MB
#P OB98/GEN NMR

erre ene a

0 1
  C      551.175    -825.499     119.771
  O      551.703    -826.647     120.396
  H      551.168    -824.680     120.498
  H      550.152    -825.675     119.433
  H      551.800    -825.200     118.922
  P      551.760    -828.016     119.554
  C      549.352    -828.535     120.319
  O      550.244    -828.421     119.222
  C      547.922    -828.779     119.825
  O      547.982    -829.805     118.801
  C      546.972    -829.257     120.939
  O      545.788    -828.475     121.054
  C      546.820    -830.741     120.645
  O      545.617    -831.315     121.118
  C      547.013    -830.817     119.119
  N      547.457    -832.122     118.643
  C      546.671    -833.222     118.958
  O      545.610    -833.185     119.585
  N      547.131    -834.441     118.513
  C      548.277    -834.646     117.802
  O      548.628    -835.753     117.425
  C      549.077    -833.440     117.514
  C      548.644    -832.253     117.949
  O      552.580    -829.109     120.160
  O      552.339    -827.576     118.127
  H      545.561    -832.220     120.765
  H      553.281    -827.815     118.073
  H      546.558    -835.233     118.726
  H      549.998    -833.574     116.970
  H      549.212    -831.349     117.752
  H      546.078    -830.578     118.618
  H      547.643    -831.285     121.135
  H      547.454    -829.141     121.927
  H      547.552    -827.852     119.349
  H      549.399    -827.605     120.896
  H      549.666    -829.365     120.965
  P      545.472    -827.483     122.263
  C      543.858    -829.163     123.477
  O      545.033    -828.370     123.521
  O      544.605    -826.316     121.930
  O      546.923    -826.919     122.676
  H      546.784    -825.997     122.994
  H      543.739    -829.677     124.408
  H      543.939    -829.877     122.684
  H      543.009    -828.534     123.306

 6  7  8  9  10  11  12  13  14  15  16  26  31  32  33  34  35 0
 6-311+G(2d,p)
 ****
 36  37 0
 6-311+G(2d,p)
 ****
 1  2  3  4  5  17  18  19  20  21  22  23  24  25 0
 3-21G
 ****
 27  28  29  30  38  39  40  41  42  43  44  45 0
 3-21G
 ****


