%nproc=1
%NoSave
%Mem=1900MB
#P OB98/GEN NMR

erre ene a

0 1
  C       66.511     156.816    -362.944
  O       67.042     158.126    -362.977
  H       66.692     156.340    -363.911
  H       65.434     156.853    -362.762
  H       67.000     156.229    -362.163
  P       66.912     158.983    -361.627
  C       69.345     159.851    -361.273
  O       68.028     160.131    -361.727
  C       70.213     159.361    -362.438
  O       70.348     160.444    -363.405
  C       71.636     158.956    -362.018
  O       72.096     157.924    -362.907
  C       72.414     160.233    -362.287
  O       73.795     159.969    -362.327
  C       71.760     160.659    -363.596
  N       72.457     163.923    -367.452
  C       72.124     162.614    -367.427
  N       71.948     161.816    -366.354
  C       72.125     162.508    -365.216
  C       72.470     163.841    -365.082
  C       72.645     164.564    -366.275
  N       73.008     165.891    -366.307
  N       72.588     164.181    -363.747
  C       72.313     163.072    -363.088
  N       72.025     162.039    -363.935
  O       67.483     157.992    -360.508
  O       65.540     159.468    -361.300
  H       73.985     159.164    -362.852
  H       66.754     157.483    -360.111
  H       71.978     162.147    -368.397
  H       72.315     162.961    -362.012
  H       72.084     160.044    -364.445
  H       72.242     160.972    -361.500
  H       71.700     158.606    -360.984
  H       69.698     158.541    -362.951
  H       69.290     159.081    -360.499
  H       69.784     160.760    -360.850
  H       73.140     166.328    -367.205
  H       73.186     166.375    -365.439
  P       71.839     156.387    -362.519
  C       71.289     155.328    -364.839
  O       72.198     155.429    -363.755
  O       70.238     156.315    -362.489
  O       72.398     155.956    -361.200
  H       69.943     155.839    -361.691
  H       71.680     154.653    -365.571
  H       71.152     156.293    -365.281
  H       70.349     154.962    -364.483

 6  7  8  9  10  11  12  13  14  15  25  28  32  33  34  35 0
 6-311+G(2d,p)
 ****
 36  37  40 0
 6-311+G(2d,p)
 ****
 1  2  3  4  5  16  17  18  19  20  21  22  23  24 0
 3-21G
 ****
 26  27  29  30  31  38  39 41  42  43  44  45  46  47  48 0
 3-21G
 ****


