%nproc=1
%NoSave
%Mem=1900MB
#P OB98/GEN NMR

erre ene a

0 1
  C     -211.072    -154.669    -595.789
  O     -211.803    -155.762    -595.236
  P     -211.441    -156.248    -593.752
  C     -211.090    -158.695    -594.492
  O     -211.792    -157.814    -593.628
  C     -211.950    -159.926    -594.827
  O     -213.029    -159.504    -595.713
  C     -211.218    -161.048    -595.579
  O     -210.567    -162.060    -594.806
  C     -212.374    -161.731    -596.296
  O     -213.030    -162.656    -595.408
  C     -213.323    -160.582    -596.625
  N     -215.889    -159.566    -600.948
  C     -216.293    -160.010    -599.734
  N     -215.547    -160.256    -598.637
  C     -214.250    -159.983    -598.869
  C     -213.693    -159.517    -600.048
  C     -214.567    -159.313    -601.125
  N     -214.150    -158.863    -602.362
  N     -212.325    -159.357    -599.907
  C     -212.069    -159.742    -598.673
  N     -213.201    -160.111    -598.002
  O     -211.944    -155.390    -592.640
  O     -209.837    -156.264    -593.776
  H     -213.522    -162.112    -594.763
  H     -209.504    -155.964    -592.905
  H     -217.359    -160.202    -599.639
  H     -211.085    -159.764    -598.228
  H     -214.380    -160.851    -596.478
  H     -212.043    -162.316    -597.166
  H     -210.513    -160.635    -596.310
  H     -212.398    -160.318    -593.910
  H     -210.162    -159.024    -594.006
  H     -214.837    -158.783    -603.093
  H     -213.164    -158.719    -602.531
  H     -210.795    -158.133    -595.377
  P     -209.033    -162.441    -595.061
  C     -209.044    -164.851    -594.041
  O     -208.659    -163.506    -593.915
  O     -208.101    -161.290    -595.168
  O     -209.116    -163.358    -596.379
  H     -209.557    -164.210    -596.242
  H     -208.516    -165.440    -593.280
  H     -208.778    -165.245    -595.031
  H     -210.119    -164.949    -593.875
  H     -211.428    -154.466    -596.778
  H     -210.032    -154.919    -595.828
  H     -211.208    -153.803    -595.176

 3  4  5  6  7  8  9  10  11  12  22  25  29  30  31  32 0
 6-311+G(2d,p)
 ****
 33  36  37 0
 6-311+G(2d,p)
 ****
 1  2  13  14  15  16  17  18  19  20  21  23  24  26 0
 3-21G
 ****
 27  28  34  35  38  39  40  41  42  43  44  45  46  47  48 0
 3-21G
 ****


