%nproc=1
%NoSave
%Mem=1900MB
#P OB98/GEN NMR

erre ene a

0 1
  C      288.713     249.477     -84.431
  O      287.931     250.630     -84.205
  H      289.365     249.326     -83.565
  H      289.341     249.604     -85.316
  H      288.075     248.597     -84.547
  P      287.019     251.198     -85.400
  C      284.956     251.529     -83.905
  O      285.961     252.182     -84.678
  C      284.134     252.536     -83.100
  O      284.966     253.136     -82.072
  C      283.545     253.678     -83.941
  O      282.169     253.862     -83.594
  C      284.366     254.890     -83.525
  O      283.665     256.114     -83.741
  C      284.674     254.548     -82.063
  N      285.787     255.323     -81.520
  C      285.458     256.546     -80.921
  O      284.289     256.931     -80.896
  N      286.464     257.313     -80.392
  C      287.698     256.925     -80.497
  N      288.654     257.738     -79.961
  C      288.093     255.665     -81.163
  C      287.099     254.919     -81.641
  O      286.407     250.153     -86.273
  O      287.970     252.213     -86.188
  H      284.083     256.812     -83.184
  H      287.612     252.362     -87.097
  H      289.137     255.388     -81.235
  H      287.289     253.970     -82.137
  H      283.796     254.714     -81.428
  H      285.295     254.924     -84.104
  H      283.611     253.501     -85.008
  H      283.346     251.989     -82.570
  H      288.338     258.594     -79.515
  H      285.441     250.810     -83.237
  H      289.642     257.535     -79.989
  H      284.293     250.993     -84.592
  P      281.096     253.393     -84.697
  C      279.400     252.313     -83.057
  O      279.651     253.353     -83.994
  O      281.459     251.847     -84.920
  O      281.160     254.165     -85.969
  H      281.983     251.737     -85.732
  H      278.406     252.411     -82.673
  H      280.102     252.381     -82.252
  H      279.503     251.364     -83.541

 6  7  8  9  10  11  12  13  14  15  16  26  30  31  32  33  35 0
 6-311+G(2d,p)
 ****
 37  38 0
 6-311+G(2d,p)
 ****
 1  2  3  4  5  17  18  19  20  21  22  23  24  25 0
 3-21G
 ****
 27  28  29  34  36  39  40  41  42  43  44  45  46 0
 3-21G
 ****


