%nproc=1
%NoSave
%Mem=1900MB
#P OB98/GEN NMR

erre ene a

0 1
  C        5.334    -899.262     298.080
  O        4.501    -899.042     296.968
  P        4.846    -898.002     295.804
  C        3.708    -896.062     297.109
  O        3.790    -896.782     295.891
  C        2.962    -894.722     296.989
  O        3.687    -893.852     296.090
  C        1.591    -894.962     296.326
  O        0.492    -895.372     297.121
  C        1.343    -893.712     295.487
  O        0.505    -892.762     296.147
  C        2.742    -893.152     295.274
  N        2.565    -890.962     290.695
  C        2.198    -890.462     291.914
  N        1.517    -889.272     291.877
  N        2.451    -891.042     293.067
  C        3.039    -892.252     292.927
  C        3.464    -892.862     291.769
  C        3.222    -892.192     290.513
  O        3.462    -892.652     289.402
  N        3.957    -894.132     292.009
  C        3.797    -894.282     293.307
  N        3.211    -893.192     293.900
  O        5.162    -898.582     294.459
  O        6.194    -897.322     296.368
  H        0.255    -892.082     295.498
  H        6.763    -897.122     295.597
  H        2.275    -890.512     289.841
  H        4.058    -895.182     293.856
  H        2.780    -892.102     295.591
  H        0.829    -893.982     294.547
  H        1.185    -888.872     291.022
  H        1.714    -895.772     295.614
  H        1.089    -888.962     292.740
  H        2.917    -894.202     297.948
  H        4.735    -895.902     297.460
  H        3.209    -896.682     297.871
  P       -0.149    -896.842     297.176
  C       -1.167    -896.822     294.834
  O       -1.425    -896.872     296.219
  O       -0.780    -896.942     298.637
  O        0.831    -897.952     296.956
  H       -0.877    -897.882     298.892
  H       -2.077    -896.542     294.306
  H       -0.844    -897.812     294.471
  H       -0.393    -896.092     294.612
  H        4.892    -900.000     298.717
  H        5.453    -898.348     298.623
  H        6.291    -899.607     297.746

 3  4  5  6  7  8  9  10  11  12  23  26  30  31 0
 6-311+G(2d,p)
 ****
 33  35  36  37  38 0
 6-311+G(2d,p)
 ****
 1  2  13  14  15  16  17  18  19  20  21  22  24  25 0
 3-21G
 ****
 27  28  29  32  34  39  40  41  42  43  44  45  46  47  48  49 0
 3-21G
 ****


