%nproc=1
%NoSave
%Mem=1900MB
#P OB98/GEN NMR

erre ene a

0 1
  C      195.453    -174.424    -112.139
  O      195.653    -175.820    -112.211
  H      196.375    -173.924    -112.445
  H      195.215    -174.121    -111.115
  H      194.649    -174.119    -112.815
  P      194.477    -176.786    -111.697
  C      194.407    -177.791    -109.308
  O      194.497    -176.613    -110.098
  C      194.154    -177.428    -107.847
  O      195.261    -176.680    -107.298
  C      192.933    -176.543    -107.607
  O      191.702    -177.237    -107.733
  C      193.207    -176.097    -106.181
  O      192.901    -177.170    -105.272
  C      194.732    -175.837    -106.236
  N      195.064    -174.436    -106.480
  C      195.237    -173.624    -105.352
  O      195.109    -174.089    -104.221
  N      195.512    -172.289    -105.531
  C      195.589    -171.803    -106.731
  N      195.817    -170.467    -106.853
  C      195.436    -172.623    -107.947
  C      195.171    -173.914    -107.753
  O      194.518    -178.197    -112.188
  O      193.129    -176.015    -112.086
  H      193.198    -176.888    -104.388
  H      192.371    -176.578    -111.799
  H      195.501    -172.168    -108.924
  H      195.026    -174.580    -108.597
  H      195.217    -176.158    -105.304
  H      192.611    -175.233    -105.877
  H      192.954    -175.666    -108.259
  H      194.090    -178.366    -107.280
  H      195.876    -169.928    -105.998
  H      195.343    -178.346    -109.419
  H      195.619    -169.972    -107.717
  H      193.580    -178.416    -109.657
  P      190.356    -176.368    -107.826
  C      188.624    -175.466    -106.099
  O      189.860    -176.125    -106.316
  O      189.296    -177.411    -108.408
  O      190.444    -175.118    -108.646
  H      189.235    -177.343    -109.381
  H      188.443    -175.385    -105.048
  H      187.835    -176.028    -106.554
  H      188.661    -174.488    -106.531

 6  7  8  9  10  11  12  13  14  15  16  26  30  31  32  33  35 0
 6-311+G(2d,p)
 ****
 37  38 0
 6-311+G(2d,p)
 ****
 1  2  3  4  5  17  18  19  20  21  22  23  24  25 0
 3-21G
 ****
 27  28  29  34  36  39  40  41  42  43  44  45  46 0
 3-21G
 ****


