%nproc=1
%NoSave
%Mem=1900MB
#P OB98/GEN NMR

erre ene a

0 1
  C      126.895      16.342      89.381
  O      126.394      16.318      90.707
  P      126.209      17.670      91.538
  C      123.754      17.927      90.646
  O      125.019      18.505      90.885
  C      122.719      18.606      91.552
  O      123.113      18.488      92.933
  C      122.576      20.091      91.227
  O      121.503      20.305      90.324
  C      122.350      20.708      92.593
  O      120.971      20.573      92.985
  C      123.251      19.823      93.488
  N      124.689      20.143      93.558
  C      125.440      19.702      94.643
  O      124.985      19.021      95.557
  N      126.755      20.097      94.656
  C      127.376      20.831      93.689
  O      128.465      21.377      93.824
  C      126.609      21.029      92.455
  C      125.317      20.704      92.455
  O      127.511      18.514      91.149
  O      126.072      17.501      93.016
  H      120.896      20.919      93.892
  H      128.192      18.436      91.843
  H      127.269      19.898      95.509
  H      127.107      21.483      91.609
  H      124.718      20.877      91.563
  H      122.875      19.797      94.517
  H      122.559      21.776      92.583
  H      123.517      20.481      90.817
  H      121.754      18.095      91.431
  H      123.790      16.851      90.846
  H      123.476      18.052      89.594
  P      121.400      21.692      89.534
  C      123.718      21.147      88.586
  O      122.916      22.117      89.228
  O      120.557      22.741      90.180
  O      120.818      21.257      88.106
  H      119.850      21.405      88.083
  H      124.655      21.615      88.277
  H      123.209      20.750      87.703
  H      123.942      20.334      89.283
  H      126.944      15.343      89.000
  H      127.874      16.774      89.377
  H      126.245      16.927      88.765

 3  4  5  6  7  8  9  10  11  12  13  23  28  29  30  31  32 0
 6-311+G(2d,p)
 ****
 33  34 0
 6-311+G(2d,p)
 ****
 1  2  14  15  16  17  18  19  20  21  22  24  25  26  27 0
 3-21G
 ****
 35  36  37  38  39  40  41  42  43  44  45 0
 3-21G
 ****


