%nproc=1
%NoSave
%Mem=1900MB
#P OB98/GEN NMR

erre ene a

0 1
  C     -193.340     581.038    -295.007
  O     -193.547     581.125    -293.615
  H     -192.704     581.869    -295.319
  H     -194.298     581.115    -295.532
  H     -192.847     580.097    -295.268
  P     -194.328     579.914    -292.906
  C     -196.637     581.099    -292.974
  O     -195.604     580.558    -292.169
  C     -197.865     581.423    -292.119
  O     -198.440     580.181    -291.635
  C     -197.552     582.297    -290.904
  O     -198.632     583.221    -290.713
  C     -197.520     581.317    -289.750
  O     -197.809     581.930    -288.493
  C     -198.546     580.269    -290.204
  N     -198.314     578.979    -289.561
  C     -198.956     578.766    -288.337
  O     -199.663     579.646    -287.840
  N     -198.738     577.591    -287.665
  C     -197.875     576.734    -288.139
  N     -197.677     575.598    -287.415
  C     -197.128     576.949    -289.393
  C     -197.401     578.076    -290.050
  O     -193.366     579.514    -291.692
  O     -194.645     578.756    -293.789
  H     -197.944     581.223    -287.827
  H     -193.426     578.558    -291.495
  H     -196.405     576.219    -289.731
  H     -196.891     578.324    -290.972
  H     -199.567     580.604    -289.967
  H     -196.521     580.863    -289.678
  H     -196.616     582.857    -291.001
  H     -198.618     581.894    -292.761
  H     -198.198     575.496    -286.551
  H     -196.919     580.363    -293.734
  H     -197.004     574.888    -287.663
  H     -196.274     582.002    -293.478
  P     -198.413     584.708    -291.266
  C     -197.141     585.565    -289.165
  O     -198.280     585.694    -290.003
  O     -199.836     585.086    -291.892
  O     -197.316     584.820    -292.273
  H     -199.776     585.100    -292.864
  H     -197.196     586.285    -288.375
  H     -196.254     585.733    -289.740
  H     -197.114     584.580    -288.749

 6  7  8  9  10  11  12  13  14  15  16  26  30  31  32  33  35 0
 6-311+G(2d,p)
 ****
 37  38 0
 6-311+G(2d,p)
 ****
 1  2  3  4  5  17  18  19  20  21  22  23  24  25 0
 3-21G
 ****
 27  28  29  34  36  39  40  41  42  43  44  45  46 0
 3-21G
 ****


