%nproc=1
%NoSave
%Mem=1900MB
#P OB98/GEN NMR

erre ene a

0 1
  C      141.929     163.387    -113.401
  O      142.269     162.832    -112.149
  H      140.842     163.368    -113.511
  H      142.371     162.793    -114.204
  H      142.273     164.422    -113.471
  P      143.810     162.901    -111.704
  C      145.079     162.460    -109.482
  O      143.834     162.738    -110.106
  C      145.342     163.457    -108.352
  O      145.650     164.751    -108.932
  C      144.154     163.637    -107.403
  O      144.652     163.783    -106.070
  C      143.529     164.945    -107.854
  O      142.795     165.591    -106.816
  C      144.756     165.719    -108.352
  N      144.382     166.756    -109.311
  C      143.584     167.797    -108.831
  O      143.221     167.808    -107.653
  N      143.167     168.769    -109.703
  C      143.448     168.664    -110.964
  N      142.981     169.643    -111.785
  C      144.230     167.545    -111.528
  C      144.668     166.641    -110.652
  O      144.190     164.439    -111.920
  O      144.728     161.979    -112.434
  H      142.243     164.916    -106.363
  H      145.128     164.540    -112.170
  H      144.418     167.488    -112.590
  H      145.243     165.781    -110.973
  H      145.281     166.192    -107.511
  H      142.839     164.754    -108.685
  H      143.444     162.807    -107.439
  H      146.234     163.132    -107.804
  H      142.432     170.384    -111.364
  H      145.877     162.549    -110.226
  H      143.101     169.639    -112.787
  H      145.070     161.437    -109.093
  P      144.652     162.467    -105.154
  C      146.383     161.461    -103.500
  O      145.790     162.635    -104.038
  O      145.236     161.338    -106.126
  O      143.301     162.101    -104.631
  H      144.526     160.722    -106.387
  H      147.119     161.734    -102.773
  H      146.848     160.904    -104.286
  H      145.628     160.861    -103.036

 6  7  8  9  10  11  12  13  14  15  16  26  30  31  32  33  35 0
 6-311+G(2d,p)
 ****
 37  38 0
 6-311+G(2d,p)
 ****
 1  2  3  4  5  17  18  19  20  21  22  23  24  25 0
 3-21G
 ****
 27  28  29  34  36  39  40  41  42  43  44  45  46 0
 3-21G
 ****


