%nproc=1
%NoSave
%Mem=1900MB
#P OB98/GEN NMR

erre ene a

0 1
  C       80.133    -108.613    -159.995
  O       79.554    -109.189    -161.150
  H       79.619    -109.002    -159.113
  H       80.019    -107.525    -160.020
  H       81.192    -108.875    -159.933
  P       80.138    -108.693    -162.560
  C       82.320    -110.027    -162.144
  O       81.736    -108.766    -162.438
  C       83.167    -110.511    -163.317
  O       82.349    -110.706    -164.491
  C       84.289    -109.559    -163.717
  O       85.433    -109.752    -162.903
  C       84.522    -109.969    -165.164
  O       85.331    -111.163    -165.240
  C       83.094    -110.250    -165.653
  N       82.248    -107.798    -169.984
  C       83.055    -108.886    -169.719
  N       83.766    -109.381    -170.756
  N       83.168    -109.437    -168.539
  C       82.446    -108.804    -167.584
  C       81.612    -107.718    -167.720
  C       81.455    -107.154    -169.043
  O       80.693    -106.244    -169.357
  N       81.039    -107.380    -166.520
  C       81.554    -108.236    -165.658
  N       82.417    -109.117    -166.255
  O       79.840    -107.118    -162.553
  O       79.548    -109.346    -163.763
  H       84.892    -111.878    -164.747
  H       79.590    -106.842    -163.454
  H       82.177    -107.436    -170.917
  H       81.326    -108.266    -164.601
  H       83.066    -111.059    -166.392
  H       85.058    -109.199    -165.719
  H       83.945    -108.839    -171.588
  H       83.952    -108.517    -163.686
  H       84.412    -110.130    -170.543
  H       83.575    -111.493    -163.045
  H       81.522    -110.750    -161.949
  H       82.945    -109.935    -161.250
  P       86.462    -108.535    -162.742
  C       86.070    -107.426    -160.428
  O       85.771    -107.421    -161.816
  O       86.456    -107.869    -164.199
  O       87.841    -108.935    -162.342
  H       87.280    -108.095    -164.670
  H       85.539    -106.632    -159.946
  H       87.122    -107.288    -160.289
  H       85.774    -108.362    -160.003

 6  7  8  9  10  11  12  13  14  15  26  29  33  34 0
 6-311+G(2d,p)
 ****
 36  38  39  40  41 0
 6-311+G(2d,p)
 ****
 1  2  3  4  5  16  17  18  19  20  21  22  23  24  25 0
 3-21G
 ****
 27  28  30  31  32  35  37  42  43  44  45  46  47 0
 3-21G
 ****
 48  49 0
 3-21G
 ****


