%nproc=1
%NoSave
%Mem=1900MB
#P OB98/GEN NMR

erre ene a

0 1
  C      337.460    -430.302    1274.548
  O      336.276    -430.280    1275.311
  P      335.034    -431.206    1274.885
  C      333.466    -431.447    1272.862
  O      334.433    -430.632    1273.517
  C      333.159    -430.895    1271.464
  O      334.296    -431.078    1270.587
  C      331.979    -431.576    1270.783
  O      330.749    -431.131    1271.314
  C      332.230    -431.200    1269.316
  O      331.738    -429.859    1269.061
  C      333.770    -431.212    1269.249
  N      334.304    -433.768    1264.858
  C      333.591    -432.652    1265.193
  N      333.484    -432.056    1266.374
  C      334.153    -432.737    1267.315
  C      334.876    -433.903    1267.152
  C      334.968    -434.418    1265.849
  N      335.721    -435.508    1265.498
  N      335.392    -434.334    1268.357
  C      334.993    -433.451    1269.245
  N      334.285    -432.419    1268.638
  O      334.030    -431.460    1275.956
  O      335.735    -432.581    1274.429
  H      332.079    -429.597    1268.192
  H      335.410    -433.313    1275.005
  H      333.071    -432.164    1264.350
  H      335.190    -433.470    1270.300
  H      334.165    -430.363    1268.669
  H      331.746    -431.865    1268.603
  H      332.070    -432.663    1270.872
  H      332.980    -429.813    1271.559
  H      332.557    -431.447    1273.473
  H      335.831    -435.713    1264.504
  H      336.453    -435.832    1266.136
  H      333.835    -432.477    1272.804
  P      329.426    -431.994    1271.091
  C      328.149    -432.792    1268.980
  O      328.969    -431.787    1269.564
  O      328.348    -431.809    1272.116
  O      329.960    -433.508    1271.080
  H      329.279    -434.106    1271.437
  H      328.779    -433.639    1268.716
  H      327.684    -432.400    1268.105
  H      327.388    -433.109    1269.720
  H      338.173    -429.628    1274.976
  H      337.243    -430.001    1273.544
  H      337.863    -431.293    1274.544

 3  4  5  6  7  8  9  10  11  12  22  25  29  30  31  32 0
 6-311+G(2d,p)
 ****
 33  36  37 0
 6-311+G(2d,p)
 ****
 1  2  13  14  15  16  17  18  19  20  21  23  24  26 0
 3-21G
 ****
 27  28  34  35  38  39  40  41  42  43  44  45  46  47  48 0
 3-21G
 ****


