%nproc=1
%NoSave
%Mem=1900MB
#P OB98/GEN NMR

erre ene a

0 1
  C      -25.692     -43.273      10.303
  O      -26.470     -44.403      10.627
  H      -26.183     -42.384      10.708
  H      -25.625     -43.173       9.215
  H      -24.687     -43.343      10.727
  P      -25.792     -45.851      10.555
  C      -26.590     -46.383       8.160
  O      -25.473     -46.166       9.013
  C      -26.492     -47.717       7.420
  O      -25.362     -47.708       6.521
  C      -26.267     -48.893       8.371
  O      -27.437     -49.429       8.960
  C      -25.601     -49.913       7.451
  O      -26.585     -50.676       6.734
  C      -24.800     -49.032       6.490
  N      -20.481     -51.631       7.322
  C      -21.754     -52.113       7.087
  N      -21.904     -53.454       7.139
  N      -22.782     -51.343       6.845
  C      -22.501     -50.021       6.920
  C      -21.283     -49.425       7.158
  C      -20.139     -50.288       7.372
  O      -18.992     -49.911       7.591
  N      -21.384     -48.054       7.155
  C      -22.671     -47.826       6.991
  N      -23.386     -48.987       6.817
  O      -27.006     -46.852      10.868
  O      -24.653     -46.073      11.503
  H      -26.193     -50.968       5.892
  H      -26.663     -47.679      11.251
  H      -19.721     -52.270       7.475
  H      -23.131     -46.844       6.964
  H      -24.881     -49.389       5.456
  H      -24.995     -50.630       8.014
  H      -21.169     -54.077       7.437
  H      -25.552     -48.619       9.153
  H      -22.850     -53.826       7.238
  H      -27.391     -47.858       6.808
  H      -26.603     -45.559       7.443
  H      -27.520     -46.330       8.732
  P      -27.368     -50.097      10.413
  C      -27.181     -52.542       9.539
  O      -26.580     -51.484      10.254
  O      -28.883     -50.546      10.669
  O      -26.864     -49.204      11.494
  H      -29.348     -49.872      11.199
  H      -26.523     -53.386       9.530
  H      -27.373     -52.229       8.534
  H      -28.102     -52.813      10.011

 6  7  8  9  10  11  12  13  14  15  26  29  33  34 0
 6-311+G(2d,p)
 ****
 36  38  39  40  41 0
 6-311+G(2d,p)
 ****
 1  2  3  4  5  16  17  18  19  20  21  22  23  24  25 0
 3-21G
 ****
 27  28  30  31  32  35  37  42  43  44  45  46  47 0
 3-21G
 ****
 48  49 0
 3-21G
 ****


