%nproc=1
%NoSave
%Mem=1900MB
#P OB98/GEN NMR

erre ene a

0 1
  C       58.316      24.201     352.187
  O       58.780      24.404     353.517
  P       59.628      23.352     354.364
  C       60.691      25.038     356.073
  O       59.835      23.926     355.840
  C       60.674      25.446     357.555
  O       59.351      25.964     357.882
  C       60.938      24.259     358.492
  O       61.806      24.572     359.580
  C       59.539      23.782     358.840
  O       59.483      22.992     360.018
  C       58.755      25.094     358.876
  N       54.078      24.614     360.863
  C       55.306      24.623     361.501
  N       55.293      24.465     362.843
  N       56.442      24.754     360.877
  C       56.322      24.821     359.534
  C       55.167      24.808     358.786
  C       53.903      24.716     359.488
  O       52.791      24.725     358.976
  N       55.435      24.909     357.444
  C       56.751      24.960     357.378
  N       57.333      24.919     358.624
  O       60.831      22.783     353.687
  O       58.592      22.133     354.603
  H       58.552      22.755     360.175
  H       59.133      21.315     354.632
  H       53.228      24.536     361.400
  H       57.328      25.040     356.466
  H       58.829      25.591     359.844
  H       59.189      23.149     358.015
  H       54.458      24.238     363.369
  H       61.469      23.459     357.965
  H       56.193      24.249     363.271
  H       61.401      26.252     357.710
  H       60.297      25.858     355.460
  H       61.705      24.830     355.735
  P       63.392      24.424     359.662
  C       63.654      26.700     360.818
  O       63.922      25.313     360.885
  O       63.951      25.207     358.387
  O       63.888      23.014     359.665
  H       64.437      24.584     357.804
  H       64.284      27.216     361.548
  H       62.606      26.883     361.059
  H       63.877      27.090     359.820
  H       57.775      25.065     351.862
  H       57.672      23.347     352.160
  H       59.152      24.038     351.539

 3  4  5  6  7  8  9  10  11  12  23  26  30  31 0
 6-311+G(2d,p)
 ****
 33  35  36  37  38 0
 6-311+G(2d,p)
 ****
 1  2  13  14  15  16  17  18  19  20  21  22  24  25 0
 3-21G
 ****
 27  28  29  32  34  39  40  41  42  43  44  45  46  47  48  49 0
 3-21G
 ****


