%nproc=1
%NoSave
%Mem=1900MB
#P OB98/GEN NMR

erre ene a

0 1
  C      255.832     -21.125      90.738
  O      254.980     -21.793      89.797
  P      254.968     -21.441      88.231
  C      257.277     -22.426      87.631
  O      255.867     -22.508      87.441
  C      258.028     -22.447      86.296
  O      259.330     -21.841      86.435
  C      258.288     -23.837      85.732
  O      257.113     -24.388      85.162
  C      259.408     -23.545      84.736
  O      258.876     -23.053      83.493
  C      260.206     -22.446      85.465
  N      261.420     -22.955      86.085
  C      262.543     -23.076      85.264
  O      262.467     -22.810      84.061
  N      263.724     -23.516      85.816
  C      263.756     -23.875      87.059
  N      264.955     -24.295      87.554
  C      262.575     -23.851      87.940
  C      261.452     -23.385      87.394
  O      255.306     -20.017      87.927
  O      253.477     -21.778      87.743
  H      258.580     -23.833      82.991
  H      253.241     -21.178      87.011
  H      262.638     -24.189      88.965
  H      260.537     -23.325      87.974
  H      260.479     -21.645      84.768
  H      260.005     -24.431      84.499
  H      258.671     -24.492      86.525
  H      257.453     -21.843      85.580
  H      265.744     -24.293      86.925
  H      257.589     -23.283      88.235
  H      265.087     -24.595      88.509
  H      257.504     -21.506      88.181
  P      256.546     -25.786      85.699
  C      255.902     -24.754      87.958
  O      255.450     -25.466      86.820
  O      257.579     -26.795      86.087
  O      255.652     -26.325      84.481
  H      255.678     -27.302      84.477
  H      255.047     -24.258      88.428
  H      256.647     -23.999      87.685
  H      256.342     -25.455      88.675
  H      255.666     -21.525      91.716
  H      255.611     -20.078      90.739
  H      256.855     -21.273      90.461

 3  4  5  6  7  8  9  10  11  12  13  23  27  28  29  30  32 0
 6-311+G(2d,p)
 ****
 34  35 0
 6-311+G(2d,p)
 ****
 1  2  14  15  16  17  18  19  20  21  22  24  25  26 0
 3-21G
 ****
 31  33  36  37  38  39  40  41  42  43  44  45  46 0
 3-21G
 ****


