%nproc=1
%NoSave
%Mem=1900MB
#P OB98/GEN NMR

erre ene a

0 1
  C       99.263     -95.637     -49.165
  O       99.996     -95.706     -50.370
  H       98.195     -95.677     -49.399
  H       99.474     -94.695     -48.649
  H       99.514     -96.481     -48.516
  P      101.595     -95.705     -50.243
  C      101.870     -93.251     -51.057
  O      102.025     -94.179     -49.990
  C      103.232     -92.939     -51.671
  O      103.046     -92.282     -52.945
  C      104.090     -91.989     -50.841
  O      104.727     -92.653     -49.765
  C      105.060     -91.470     -51.895
  O      106.154     -92.374     -52.094
  C      104.187     -91.419     -53.156
  N      105.696     -86.850     -54.838
  C      106.350     -88.025     -54.704
  N      105.868     -89.207     -54.263
  C      104.565     -89.098     -53.953
  C      103.770     -87.966     -54.029
  C      104.386     -86.797     -54.501
  N      103.731     -85.593     -54.604
  N      102.494     -88.241     -53.577
  C      102.516     -89.515     -53.243
  N      103.744     -90.073     -53.459
  O      102.073     -95.991     -51.744
  O      102.157     -96.694     -49.277
  H      106.793     -92.202     -51.375
  H      102.236     -96.946     -51.860
  H      107.400     -88.014     -54.985
  H      101.678     -90.070     -52.837
  H      104.716     -91.794     -54.041
  H      105.484     -90.508     -51.605
  H      103.483     -91.152     -50.476
  H      103.760     -93.884     -51.849
  H      101.429     -92.325     -50.671
  H      101.198     -93.680     -51.807
  H      104.242     -84.788     -54.928
  H      102.785     -85.518     -54.254
  P      104.441     -92.143     -48.274
  C      106.831     -91.129     -48.124
  O      105.435     -90.918     -47.980
  O      105.018     -93.327     -47.365
  O      103.007     -91.859     -47.977
  H      104.293     -93.900     -47.052
  H      107.354     -90.224     -47.894
  H      107.046     -91.419     -49.131
  H      107.146     -91.903     -47.455

 6  7  8  9  10  11  12  13  14  15  25  28  32  33  34  35 0
 6-311+G(2d,p)
 ****
 36  37  40 0
 6-311+G(2d,p)
 ****
 1  2  3  4  5  16  17  18  19  20  21  22  23  24 0
 3-21G
 ****
 26  27  29  30  31  38  39 41  42  43  44  45  46  47  48 0
 3-21G
 ****


