%nproc=1
%NoSave
%Mem=1900MB
#P OB98/GEN NMR

erre ene a

0 1
  C       50.214    -240.468     253.263
  O       49.658    -240.828     254.537
  P       50.605    -240.869     255.832
  C       50.947    -243.420     255.367
  O       51.530    -242.179     255.755
  C       52.005    -244.534     255.418
  O       52.519    -244.669     256.772
  C       51.478    -245.916     255.066
  O       51.326    -246.091     253.662
  C       52.559    -246.820     255.652
  O       53.679    -246.932     254.758
  C       52.955    -246.039     256.930
  N       52.412    -246.635     258.150
  C       53.061    -247.777     258.615
  O       54.000    -248.317     258.029
  N       52.564    -248.309     259.782
  C       51.466    -247.859     260.466
  O       51.060    -248.387     261.498
  C       50.780    -246.708     259.878
  C       51.269    -246.154     258.762
  O       49.575    -241.252     256.998
  O       51.322    -239.589     256.156
  H       54.090    -246.046     254.722
  H       49.894    -240.895     257.838
  H       53.030    -249.127     260.154
  H       49.893    -246.335     260.376
  H       50.765    -245.300     258.314
  H       54.051    -245.990     257.019
  H       52.198    -247.828     255.856
  H       50.528    -246.106     255.601
  H       52.841    -244.259     254.766
  H       50.573    -243.344     254.338
  H       50.106    -243.655     256.039
  P       49.800    -246.079     253.109
  C       49.835    -248.677     252.864
  O       49.231    -247.537     253.435
  O       50.071    -246.075     251.523
  O       48.998    -244.934     253.619
  H       50.860    -246.571     251.285
  H       50.915    -248.549     252.736
  H       49.366    -248.891     251.885
  H       49.660    -249.543     253.531
  H       49.446    -240.493     252.519
  H       50.986    -241.162     253.002
  H       50.625    -239.482     253.319

 3  4  5  6  7  8  9  10  11  12  13  23  28  29  30  31  32 0
 6-311+G(2d,p)
 ****
 33  34 0
 6-311+G(2d,p)
 ****
 1  2  14  15  16  17  18  19  20  21  22  24  25  26 0
 3-21G
 ****
 27  35  36  37  38  39  40  41  42  43  44  45 0
 3-21G
 ****


