%nproc=1
%NoSave
%Mem=1900MB
#P OB98/GEN NMR

erre ene a

0 1
  C       -9.443     -79.060     146.586
  O       -8.848     -78.733     145.348
  H      -10.501     -79.280     146.416
  H       -9.365     -78.226     147.286
  H       -8.967     -79.949     147.012
  P       -7.317     -78.258     145.339
  C       -6.301     -80.147     143.895
  O       -6.681     -78.780     143.964
  C       -6.605     -80.730     142.510
  O       -8.014     -81.096     142.453
  C       -6.342     -79.752     141.352
  O       -5.976     -80.529     140.205
  C       -7.716     -79.132     141.163
  O       -7.807     -78.440     139.946
  C       -8.599     -80.369     141.348
  N       -9.991     -80.029     141.598
  C      -10.738     -79.612     140.490
  O      -10.207     -79.541     139.382
  N      -12.052     -79.264     140.672
  C      -12.557     -79.259     141.864
  N      -13.862     -78.890     141.978
  C      -11.788     -79.635     143.073
  C      -10.527     -80.008     142.867
  O       -6.528     -78.590     146.560
  O       -7.407     -76.674     145.116
  H       -8.746     -78.258     139.715
  H       -7.221     -76.212     145.954
  H      -12.254     -79.597     144.045
  H       -9.883     -80.301     143.692
  H       -8.557     -81.017     140.465
  H       -7.919     -78.404     141.956
  H       -5.561     -79.021     141.581
  H       -6.031     -81.654     142.383
  H      -14.345     -78.630     141.126
  H       -6.871     -80.685     144.660
  H      -14.356     -78.831     142.855
  H       -5.233     -80.253     144.111
  P       -5.475     -79.873     138.833
  C       -3.088     -80.844     138.689
  O       -4.402     -80.846     138.142
  O       -5.012     -78.456     138.965
  O       -6.740     -79.957     137.847
  H       -6.708     -79.204     137.228
  H       -2.474     -81.529     138.144
  H       -3.129     -81.141     139.716
  H       -2.674     -79.860     138.619

 6  7  8  9  10  11  12  13  14  15  16  26  30  31  32  33  35 0
 6-311+G(2d,p)
 ****
 37  38 0
 6-311+G(2d,p)
 ****
 1  2  3  4  5  17  18  19  20  21  22  23  24  25 0
 3-21G
 ****
 27  28  29  34  36  39  40  41  42  43  44  45  46 0
 3-21G
 ****


