%nproc=1
%NoSave
%Mem=1900MB
#P OB98/GEN NMR

erre ene a

0 1
  C        3.971      15.063       2.267
  O        3.456      14.506       1.073
  H        3.985      14.290       3.040
  H        3.329      15.883       2.601
  H        4.990      15.427       2.112
  P        3.570      15.412      -0.242
  C        1.907      16.974      -1.535
  O        2.234      16.303      -0.326
  C        0.512      17.583      -1.437
  O       -0.482      16.558      -1.244
  C        0.316      18.503      -0.243
  O        0.979      19.738      -0.394
  C       -1.202      18.626      -0.229
  O       -1.659      19.639      -1.133
  C       -1.650      17.223      -0.707
  N       -2.277      16.466       0.360
  C       -3.637      16.733       0.564
  O       -4.221      17.547      -0.151
  N       -4.283      16.100       1.593
  C       -3.627      15.295       2.368
  N       -4.319      14.725       3.391
  C       -2.193      14.988       2.189
  C       -1.585      15.603       1.175
  O        3.370      14.344      -1.415
  O        4.827      16.206      -0.347
  H       -1.234      19.452      -1.994
  H        2.601      13.764      -1.290
  H       -1.694      14.299       2.854
  H       -0.534      15.436       0.971
  H       -2.367      17.310      -1.533
  H       -1.575      18.892       0.763
  H        0.625      17.995       0.680
  H        0.299      18.103      -2.380
  H       -5.285      15.007       3.511
  H        1.962      16.284      -2.384
  H       -3.896      14.147       4.101
  H        2.656      17.756      -1.695
  P        1.234      20.704       0.857
  C        0.163      22.899       1.674
  O       -0.030      21.693       0.943
  O        2.556      21.395       0.871
  O        0.988      19.741       2.113
  H        0.100      19.348       2.160
  H       -0.741      23.472       1.662
  H        0.951      23.466       1.224
  H        0.424      22.665       2.685

 6  7  8  9  10  11  12  13  14  15  16  26  30  31  32  33  35 0
 6-311+G(2d,p)
 ****
 37  38 0
 6-311+G(2d,p)
 ****
 1  2  3  4  5  17  18  19  20  21  22  23  24  25 0
 3-21G
 ****
 27  28  29  34  36  39  40  41  42  43  44  45  46 0
 3-21G
 ****


