%nproc=1
%NoSave
%Mem=1900MB
#P OB98/GEN NMR

erre ene a

0 1
  C       67.622     418.563     519.258
  O       66.797     418.798     518.134
  H       68.446     419.282     519.244
  H       68.041     417.552     519.213
  H       67.060     418.693     520.185
  P       65.426     417.980     517.997
  C       66.240     415.605     517.402
  O       65.679     416.822     516.921
  C       65.536     414.417     516.747
  O       64.141     414.392     517.122
  C       65.563     414.451     515.224
  O       66.827     414.077     514.716
  C       64.430     413.489     514.896
  O       64.877     412.129     514.985
  C       63.411     413.811     516.011
  N       62.337     414.691     515.567
  C       61.075     414.112     515.432
  O       60.858     412.924     515.633
  N       60.074     414.954     515.015
  C       60.228     416.252     514.627
  O       59.315     416.933     514.182
  C       61.584     416.808     514.766
  C       62.558     416.011     515.222
  O       64.200     418.803     517.765
  O       65.330     417.170     519.378
  H       64.208     411.588     514.519
  H       64.667     417.592     519.956
  H       59.157     414.549     514.902
  H       61.745     417.832     514.478
  H       63.570     416.400     515.324
  H       62.959     412.886     516.389
  H       64.041     413.634     513.890
  H       65.283     415.454     514.868
  H       66.002     413.494     517.125
  H       66.096     415.558     518.488
  H       67.314     415.592     517.184
  P       68.053     415.105     514.768
  C       67.201     416.849     513.090
  O       68.143     415.818     513.337
  O       69.335     414.542     515.291
  O       67.515     416.276     515.720
  H       68.103     416.350     516.501
  H       67.357     417.248     512.109
  H       67.325     417.626     513.815
  H       66.210     416.451     513.159

 6  7  8  9  10  11  12  13  14  15  16  26  31  32  33  34  35 0
 6-311+G(2d,p)
 ****
 36  37 0
 6-311+G(2d,p)
 ****
 1  2  3  4  5  17  18  19  20  21  22  23  24  25 0
 3-21G
 ****
 27  28  29  30  38  39  40  41  42  43  44  45 0
 3-21G
 ****


