%nproc=1
%NoSave
%Mem=1900MB
#P OB98/GEN NMR

erre ene a

0 1
  C      804.403     619.118    -271.359
  O      804.877     620.085    -270.444
  H      805.192     618.902    -272.081
  H      803.530     619.494    -271.896
  H      804.148     618.191    -270.833
  P      803.863     620.659    -269.342
  C      803.081     622.895    -270.389
  O      803.932     622.258    -269.445
  C      803.645     624.255    -270.806
  O      804.856     624.047    -271.581
  C      802.685     625.089    -271.668
  O      802.958     626.474    -271.409
  C      803.137     624.711    -273.067
  O      802.623     625.589    -274.034
  C      804.653     624.675    -272.868
  N      805.344     623.977    -273.939
  C      805.369     624.614    -275.183
  O      804.822     625.710    -275.331
  N      805.995     623.990    -276.232
  C      806.487     622.804    -276.072
  N      807.079     622.233    -277.159
  C      806.426     622.063    -274.788
  C      805.855     622.711    -273.778
  O      804.020     620.111    -267.965
  O      802.413     620.324    -269.947
  H      802.932     625.334    -274.935
  H      802.027     619.567    -269.464
  H      806.835     621.064    -274.717
  H      805.764     622.247    -272.793
  H      805.059     625.700    -272.802
  H      802.764     623.713    -273.332
  H      801.629     624.872    -271.474
  H      803.939     624.803    -269.896
  H      807.083     622.770    -278.022
  H      802.108     623.020    -269.909
  H      807.473     621.303    -277.158
  H      802.962     622.263    -271.271
  P      801.840     627.618    -271.498
  C      803.152     629.425    -272.789
  O      802.553     629.053    -271.553
  O      800.774     627.511    -270.455
  O      801.206     627.464    -272.963
  H      800.273     627.737    -272.933
  H      803.590     630.397    -272.695
  H      802.406     629.443    -273.556
  H      803.910     628.715    -273.046

 6  7  8  9  10  11  12  13  14  15  16  26  30  31  32  33  35 0
 6-311+G(2d,p)
 ****
 37  38 0
 6-311+G(2d,p)
 ****
 1  2  3  4  5  17  18  19  20  21  22  23  24  25 0
 3-21G
 ****
 27  28  29  34  36  39  40  41  42  43  44  45  46 0
 3-21G
 ****


