%nproc=1
%NoSave
%Mem=1900MB
#P OB98/GEN NMR

erre ene a

0 1
  C     -119.764    -849.276    -894.890
  O     -119.564    -847.947    -894.390
  P     -120.011    -846.708    -895.320
  C     -121.222    -845.526    -893.370
  O     -121.320    -846.036    -894.700
  C     -122.367    -844.509    -893.090
  O     -122.361    -843.473    -894.100
  C     -123.745    -845.164    -893.080
  O     -124.516    -844.834    -891.920
  C     -124.363    -844.735    -894.410
  O     -125.790    -844.742    -894.400
  C     -123.698    -843.366    -894.660
  N     -123.684    -843.032    -896.090
  C     -124.917    -842.736    -896.660
  O     -125.991    -842.826    -896.060
  N     -124.895    -842.428    -898.000
  C     -123.808    -842.412    -898.810
  O     -123.867    -842.137    -900.000
  C     -122.527    -842.783    -898.170
  C     -122.541    -843.072    -896.850
  O     -120.053    -846.969    -896.770
  O     -118.875    -845.603    -894.970
  H     -126.102    -844.319    -893.580
  H     -118.648    -845.147    -895.810
  H     -125.790    -842.175    -898.420
  H     -121.650    -842.828    -898.780
  H     -121.623    -843.374    -896.350
  H     -124.230    -842.577    -894.140
  H     -124.023    -845.438    -895.170
  H     -123.682    -846.261    -893.060
  H     -122.148    -844.032    -892.120
  H     -120.268    -845.036    -893.230
  H     -121.265    -846.356    -892.650
  P     -124.562    -845.706    -890.580
  C     -123.088    -843.996    -889.330
  O     -123.271    -845.342    -889.700
  O     -124.797    -847.192    -890.770
  O     -125.792    -845.092    -889.760
  H     -126.287    -845.777    -889.320
  H     -122.013    -843.845    -889.080
  H     -123.665    -843.745    -888.440
  H     -123.333    -843.299    -890.150
  H     -119.421    -849.985    -894.166
  H     -119.215    -849.401    -895.800
  H     -120.806    -849.433    -895.078

 3  4  5  6  7  8  9  10  11  12  13  23  28  29  30  31  32 0
 6-311+G(2d,p)
 ****
 33  34 0
 6-311+G(2d,p)
 ****
 1  2  14  15  16  17  18  19  20  21  22  24  25  26  27 0
 3-21G
 ****
 35  36  37  38  39  40  41  42  43  44  45 0
 3-21G
 ****


