%nproc=1
%NoSave
%Mem=1900MB
#P OB98/GEN NMR

erre ene a

0 1
  C      263.298     -83.799     964.814
  O      264.478     -84.456     965.225
  H      263.454     -82.720     964.881
  H      262.466     -84.073     965.472
  H      263.051     -84.052     963.775
  P      264.573     -86.047     965.073
  C      263.120     -88.025     965.895
  O      263.533     -86.675     966.121
  C      262.283     -88.506     967.078
  O      260.985     -87.872     967.065
  C      262.009     -90.011     967.054
  O      263.145     -90.744     967.461
  C      260.819     -90.101     967.994
  O      261.249     -90.081     969.365
  C      260.043     -88.812     967.644
  N      258.919     -89.050     966.740
  C      257.783     -89.630     967.305
  O      257.716     -89.954     968.492
  N      256.732     -89.846     966.455
  C      256.755     -89.651     965.100
  O      255.811     -89.940     964.368
  C      257.980     -89.059     964.555
  C      258.996     -88.799     965.381
  O      265.948     -86.624     965.132
  O      263.871     -86.333     963.662
  H      260.457     -90.312     969.899
  H      264.562     -86.536     962.999
  H      255.907     -90.273     966.844
  H      258.027     -88.885     963.487
  H      259.912     -88.370     964.997
  H      259.656     -88.339     968.559
  H      260.243     -91.010     967.846
  H      261.685     -90.319     966.044
  H      262.795     -88.221     968.006
  H      264.015     -88.645     965.793
  H      262.550     -88.064     964.957
  P      263.166     -92.339     967.298
  C      261.412     -94.176     967.715
  O      261.952     -92.940     968.162
  O      264.485     -92.987     967.544
  O      262.697     -92.571     965.785
  H      263.405     -93.033     965.294
  H      260.616     -94.473     968.365
  H      262.177     -94.924     967.724
  H      261.036     -94.062     966.720

 6  7  8  9  10  11  12  13  14  15  16  26  31  32  33  34  35 0
 6-311+G(2d,p)
 ****
 36  37 0
 6-311+G(2d,p)
 ****
 1  2  3  4  5  17  18  19  20  21  22  23  24  25 0
 3-21G
 ****
 27  28  29  30  38  39  40  41  42  43  44  45 0
 3-21G
 ****


