%nproc=1
%NoSave
%Mem=1900MB
#P OB98/GEN NMR

erre ene a

0 1
  C      477.074      62.824    -367.816
  O      477.044      64.093    -367.177
  P      477.414      64.249    -365.624
  C      475.049      64.640    -364.691
  O      476.120      63.718    -364.835
  C      473.906      64.001    -363.902
  O      473.325      62.953    -364.715
  C      474.301      63.315    -362.592
  O      474.392      64.191    -361.479
  C      473.115      62.374    -362.400
  O      471.991      63.110    -361.877
  C      472.833      61.917    -363.832
  N      472.165      56.866    -364.390
  C      471.303      57.868    -364.097
  N      471.560      59.187    -363.945
  C      472.863      59.441    -364.181
  C      473.854      58.533    -364.490
  C      473.462      57.179    -364.599
  N      474.341      56.168    -364.920
  N      475.076      59.164    -364.634
  C      474.807      60.436    -364.424
  N      473.482      60.656    -364.154
  O      477.896      65.601    -365.236
  O      478.497      63.102    -365.358
  H      472.255      63.442    -360.999
  H      478.971      63.277    -364.525
  H      470.264      57.576    -363.953
  H      475.540      61.233    -364.453
  H      471.762      61.799    -364.034
  H      473.329      61.567    -361.686
  H      475.215      62.723    -362.710
  H      473.135      64.763    -363.728
  H      474.690      64.912    -365.691
  H      473.948      55.259    -365.102
  H      475.270      56.421    -365.230
  H      475.411      65.547    -364.194
  P      475.564      63.901    -360.411
  C      473.853      62.914    -358.696
  O      475.017      62.724    -359.472
  O      476.064      65.109    -359.701
  O      476.677      63.171    -361.304
  H      476.432      62.293    -361.637
  H      473.557      61.955    -358.261
  H      473.025      63.282    -359.314
  H      474.053      63.622    -357.884
  H      476.797      62.935    -368.843
  H      476.386      62.164    -367.330
  H      478.062      62.417    -367.755

 3  4  5  6  7  8  9  10  11  12  22  25  29  30  31  32 0
 6-311+G(2d,p)
 ****
 33  36  37 0
 6-311+G(2d,p)
 ****
 1  2  13  14  15  16  17  18  19  20  21  23  24  26 0
 3-21G
 ****
 27  28  34  35  38  39  40  41  42  43  44  45  46  47  48 0
 3-21G
 ****


