%nproc=1
%NoSave
%Mem=1900MB
#P OB98/GEN NMR

erre ene a

0 1
  C      244.340     625.284     278.035
  O      243.013     625.477     277.515
  P      241.985     626.531     278.144
  C      239.594     625.571     278.224
  O      240.549     626.317     277.471
  C      238.602     624.833     277.318
  O      238.054     625.714     276.327
  C      239.216     623.669     276.533
  O      239.350     622.530     277.363
  C      238.204     623.515     275.401
  O      237.057     622.767     275.832
  C      237.813     624.979     275.130
  N      237.416     627.552     270.699
  C      236.489     627.131     271.596
  N      236.672     626.450     272.748
  C      237.976     626.215     272.955
  C      239.043     626.562     272.133
  C      238.722     627.268     270.956
  N      239.673     627.673     270.040
  N      240.246     626.137     272.666
  C      239.910     625.554     273.800
  N      238.555     625.559     274.019
  O      242.470     627.944     278.132
  O      241.760     626.022     279.658
  H      237.376     622.023     276.382
  H      241.543     626.777     280.226
  H      235.465     627.388     271.355
  H      240.612     625.093     274.485
  H      236.744     625.075     274.889
  H      238.618     622.994     274.526
  H      240.178     623.961     276.120
  H      237.769     624.470     277.944
  H      239.052     626.266     278.877
  H      239.356     628.132     269.205
  H      240.642     627.416     270.196
  H      240.132     624.849     278.852
  P      240.762     621.782     277.455
  C      239.583     619.557     278.044
  O      240.563     620.523     278.441
  O      241.932     622.639     277.776
  O      240.917     621.076     276.025
  H      241.875     621.013     275.800
  H      238.590     619.928     278.310
  H      239.777     618.629     278.590
  H      239.642     619.369     276.972
  H      244.843     624.534     277.460
  H      244.281     624.970     279.056
  H      244.884     626.204     277.975

 3  4  5  6  7  8  9  10  11  12  22  25  29  30  31  32 0
 6-311+G(2d,p)
 ****
 33  36  37 0
 6-311+G(2d,p)
 ****
 1  2  13  14  15  16  17  18  19  20  21  23  24  26 0
 3-21G
 ****
 27  28  34  35  38  39  40  41  42  43  44  45  46  47  48 0
 3-21G
 ****


