%nproc=1
%NoSave
%Mem=1900MB
#P OB98/GEN NMR

erre ene a

0 1
  C      113.509     697.519     826.329
  O      112.375     696.738     826.012
  H      113.626     697.535     827.416
  H      113.368     698.544     825.977
  H      114.412     697.095     825.880
  P      112.063     696.414     824.474
  C      110.070     695.308     823.264
  O      110.845     695.370     824.460
  C      109.301     693.980     823.209
  O      110.232     692.878     823.355
  C      108.292     693.818     824.326
  O      107.121     694.598     824.084
  C      108.073     692.307     824.285
  O      107.143     691.943     823.256
  C      109.493     691.796     823.964
  N      110.175     691.280     825.152
  C      109.637     690.148     825.728
  O      108.642     689.563     825.302
  N      110.241     689.721     826.895
  C      111.212     690.393     827.569
  O      111.553     690.113     828.707
  C      111.796     691.556     826.879
  C      111.246     691.949     825.720
  O      113.241     696.034     823.642
  O      111.378     697.761     823.933
  H      112.036     698.268     823.421
  H      106.297     692.354     823.511
  H      109.828     688.920     827.342
  H      112.625     692.081     827.348
  H      111.636     692.823     825.201
  H      109.447     690.988     823.207
  H      107.678     691.947     825.242
  H      108.735     694.092     825.289
  H      108.836     693.901     822.211
  H      110.752     695.377     822.400
  H      109.387     696.162     823.234
  P      106.262     695.159     825.312
  C      104.869     697.252     825.872
  O      105.730     696.627     824.924
  O      106.941     695.064     826.649
  O      104.919     694.285     825.293
  H      104.758     693.932     826.179
  H      104.580     698.217     825.510
  H      105.383     697.360     826.804
  H      103.997     696.649     826.014

 6  7  8  9  10  11  12  13  14  15  16  27  31  32  33  34  35 0
 6-311+G(2d,p)
 ****
 36  37 0
 6-311+G(2d,p)
 ****
 1  2  3  4  5  17  18  19  20  21  22  23  24  25 0
 3-21G
 ****
 26  28  29  30  38  39  40  41  42  43  44  45 0
 3-21G
 ****


