%nproc=1
%NoSave
%Mem=1900MB
#P OB98/GEN NMR

erre ene a

0 1
  C      179.786     403.225    -530.009
  O      178.639     403.866    -529.491
  P      178.460     405.457    -529.580
  C      177.468     405.261    -531.944
  O      178.503     405.816    -531.146
  C      177.302     406.027    -533.252
  O      177.014     407.425    -532.966
  C      178.523     405.992    -534.180
  O      178.018     406.004    -535.518
  C      179.217     407.305    -533.859
  O      180.122     407.708    -534.878
  C      178.005     408.223    -533.650
  N      178.358     409.426    -532.903
  C      177.755     410.617    -533.313
  O      177.035     410.634    -534.313
  N      178.031     411.772    -532.626
  C      178.908     411.755    -531.668
  N      179.138     412.925    -531.016
  C      179.662     410.542    -531.287
  C      179.329     409.420    -531.929
  O      179.393     406.250    -528.728
  O      176.916     405.682    -529.217
  H      180.557     408.538    -534.596
  H      176.778     405.604    -528.239
  H      180.424     410.585    -530.523
  H      179.819     408.485    -531.716
  H      177.575     408.522    -534.610
  H      179.787     407.204    -532.931
  H      179.173     405.126    -534.019
  H      176.429     405.621    -533.781
  H      178.591     413.725    -531.301
  H      176.533     405.317    -531.382
  H      179.739     413.001    -530.211
  H      177.680     404.197    -532.141
  P      178.694     405.113    -536.673
  C      177.044     403.202    -537.060
  O      178.242     403.607    -536.422
  O      180.168     405.314    -536.841
  O      177.892     405.521    -538.003
  H      178.395     405.227    -538.787
  H      176.988     402.108    -537.054
  H      177.011     403.551    -538.095
  H      176.183     403.601    -536.514
  H      179.708     402.170    -529.849
  H      180.658     403.598    -529.513
  H      179.861     403.422    -531.058

 3  4  5  6  7  8  9  10  11  12  13  23  27  28  29  30  32 0
 6-311+G(2d,p)
 ****
 34  35 0
 6-311+G(2d,p)
 ****
 1  2  14  15  16  17  18  19  20  21  22  24  25  26 0
 3-21G
 ****
 31  33  36  37  38  39  40  41  42  43  44  45  46 0
 3-21G
 ****


