%nproc=1
%NoSave
%Mem=1900MB
#P OB98/GEN NMR

erre ene a

0 1
  C      269.713    -237.816    -101.921
  O      269.798    -237.160    -103.170
  H      270.710    -237.848    -101.475
  H      269.352    -238.839    -102.047
  H      269.048    -237.266    -101.249
  P      268.484    -237.083    -104.082
  C      267.777    -234.779    -103.145
  O      268.158    -235.527    -104.290
  C      266.378    -234.176    -103.327
  O      265.928    -233.639    -102.052
  C      266.327    -233.026    -104.350
  O      265.019    -233.036    -104.937
  C      266.503    -231.820    -103.451
  O      266.165    -230.628    -104.115
  C      265.641    -232.236    -102.254
  N      265.915    -231.444    -101.066
  C      265.292    -230.196    -100.999
  O      264.570    -229.811    -101.919
  N      265.525    -229.399     -99.907
  C      266.364    -229.787     -98.997
  N      266.565    -228.944     -97.948
  C      267.088    -231.073     -99.059
  C      266.814    -231.847    -100.108
  O      267.327    -237.908    -103.627
  O      268.991    -237.541    -105.531
  H      266.713    -230.508    -104.924
  H      268.690    -238.451    -105.713
  H      267.791    -231.342     -98.283
  H      267.298    -232.812    -100.240
  H      264.574    -232.151    -102.493
  H      267.549    -231.718    -103.144
  H      267.090    -233.113    -105.126
  H      265.682    -234.978    -103.598
  H      266.056    -228.068     -97.951
  H      268.513    -233.980    -103.012
  H      267.206    -229.129     -97.192
  H      267.788    -235.418    -102.254
  P      264.671    -233.842    -106.279
  C      263.998    -236.232    -105.575
  O      263.544    -234.937    -105.964
  O      265.871    -234.389    -106.985
  O      263.911    -232.786    -107.214
  H      264.096    -232.995    -108.148
  H      263.155    -236.866    -105.394
  H      264.582    -236.152    -104.682
  H      264.597    -236.650    -106.357

 6  7  8  9  10  11  12  13  14  15  16  26  30  31  32  33  35 0
 6-311+G(2d,p)
 ****
 37  38 0
 6-311+G(2d,p)
 ****
 1  2  3  4  5  17  18  19  20  21  22  23  24  25 0
 3-21G
 ****
 27  28  29  34  36  39  40  41  42  43  44  45  46 0
 3-21G
 ****


