%nproc=1
%NoSave
%Mem=1900MB
#P OB98/GEN NMR

erre ene a

0 1
  C      188.599    -163.536    -111.447
  O      189.014    -164.758    -112.021
  P      188.058    -166.028    -112.173
  C      187.812    -165.968    -114.757
  O      187.169    -165.832    -113.497
  C      187.154    -167.029    -115.653
  O      185.756    -166.711    -115.825
  C      187.780    -167.000    -117.051
  O      188.983    -167.694    -117.308
  C      186.635    -167.326    -118.003
  O      186.625    -168.698    -118.398
  C      185.384    -166.993    -117.184
  N      182.065    -165.404    -120.671
  C      182.375    -166.694    -120.289
  N      181.870    -167.679    -121.069
  N      183.121    -166.986    -119.256
  C      183.631    -165.894    -118.636
  C      183.386    -164.570    -118.913
  C      182.525    -164.263    -120.030
  O      182.293    -163.133    -120.452
  N      184.129    -163.737    -118.122
  C      184.857    -164.554    -117.386
  N      184.620    -165.871    -117.692
  O      187.392    -166.520    -110.928
  O      189.108    -167.162    -112.636
  H      186.486    -169.242    -117.599
  H      188.812    -168.011    -112.254
  H      181.545    -165.241    -121.525
  H      185.594    -164.244    -116.652
  H      184.705    -167.855    -117.150
  H      186.722    -166.741    -118.926
  H      181.414    -167.488    -121.949
  H      188.030    -165.953    -117.263
  H      182.211    -168.621    -120.920
  H      187.180    -168.013    -115.180
  H      188.860    -166.223    -114.566
  H      187.804    -165.008    -115.278
  P      190.361    -167.056    -117.812
  C      191.299    -167.234    -115.441
  O      191.098    -166.389    -116.561
  O      189.910    -165.784    -118.680
  O      191.213    -167.968    -118.635
  H      190.621    -165.543    -119.303
  H      191.517    -166.620    -114.564
  H      192.146    -167.900    -115.631
  H      190.404    -167.836    -115.240
  H      189.413    -162.842    -111.458
  H      188.287    -163.704    -110.437
  H      187.782    -163.136    -112.011

 3  4  5  6  7  8  9  10  11  12  23  26  30  31 0
 6-311+G(2d,p)
 ****
 33  35  36  37  38 0
 6-311+G(2d,p)
 ****
 1  2  13  14  15  16  17  18  19  20  21  22  24  25 0
 3-21G
 ****
 27  28  29  32  34  39  40  41  42  43  44  45  46  47  48  49 0
 3-21G
 ****


