%nproc=1
%NoSave
%Mem=1900MB
#P OB98/GEN NMR

erre ene a

0 1
  C       18.239      63.483     -67.517
  O       17.882      62.123     -67.402
  P       16.359      61.647     -67.532
  C       14.200      61.973     -66.161
  O       15.534      62.418     -66.385
  C       13.322      63.140     -65.693
  O       13.295      64.154     -66.744
  C       11.867      62.716     -65.407
  O       11.382      63.098     -64.118
  C       11.108      63.299     -66.589
  O        9.723      63.468     -66.357
  C       11.921      64.566     -66.884
  N       11.635      65.119     -68.206
  C       10.538      65.970     -68.314
  O        9.810      66.289     -67.378
  N       10.247      66.414     -69.575
  C       10.854      66.012     -70.727
  O       10.477      66.374     -71.833
  C       11.982      65.080     -70.554
  C       12.332      64.700     -69.323
  O       16.149      60.171     -67.552
  O       15.859      62.395     -68.858
  H        9.299      63.679     -67.212
  H       15.914      63.367     -68.826
  H        9.454      67.031     -69.668
  H       12.475      64.736     -71.451
  H       13.158      64.015     -69.164
  H       11.736      65.341     -66.138
  H       11.208      62.599     -67.429
  H       11.766      61.624     -65.414
  H       13.790      63.573     -64.805
  H       14.211      61.200     -65.389
  H       13.803      61.518     -67.075
  P       10.177      62.387     -63.341
  C        7.631      62.078     -63.771
  O        8.807      62.811     -64.050
  O       10.196      62.546     -61.857
  O       10.333      60.844     -63.744
  H        9.988      60.283     -63.024
  H        6.970      62.133     -64.642
  H        7.120      62.529     -62.916
  H        7.850      61.029     -63.556
  H       19.298      63.585     -67.400
  H       17.740      64.048     -66.758
  H       17.950      63.847     -68.481

 3  4  5  6  7  8  9  10  11  12  13  23  28  29  30  31  32 0
 6-311+G(2d,p)
 ****
 33  34 0
 6-311+G(2d,p)
 ****
 1  2  14  15  16  17  18  19  20  21  22  24  25  26  27 0
 3-21G
 ****
 35  36  37  38  39  40  41  42  43  44  45 0
 3-21G
 ****


