%nproc=1
%NoSave
%Mem=1900MB
#P OB98/GEN NMR

erre ene a

0 1
  C      -21.085      26.660      -6.909
  O      -22.294      26.299      -7.551
  P      -22.611      26.839      -9.024
  C      -23.855      28.893      -8.021
  O      -22.860      28.417      -8.901
  C      -23.569      30.338      -7.590
  O      -22.162      30.432      -7.258
  C      -23.814      31.388      -8.669
  O      -23.920      32.668      -8.041
  C      -22.531      31.319      -9.467
  O      -22.315      32.493     -10.244
  C      -21.469      31.044      -8.371
  N      -20.402      30.153      -8.862
  C      -19.300      30.759      -9.458
  O      -19.157      31.980      -9.515
  N      -18.407      29.917     -10.062
  C      -18.544      28.563     -10.162
  O      -17.917      27.869     -10.953
  C      -19.590      27.967      -9.315
  C      -20.477      28.779      -8.732
  O      -24.068      26.244      -9.313
  O      -21.629      26.433     -10.068
  H      -23.040      32.531     -10.911
  H      -23.999      25.417      -9.826
  H      -17.687      30.363     -10.617
  H      -19.638      26.889      -9.246
  H      -21.291      28.365      -8.144
  H      -21.000      31.974      -8.026
  H      -22.584      30.469     -10.159
  H      -24.693      31.197      -9.292
  H      -24.146      30.569      -6.687
  H      -23.910      28.235      -7.149
  H      -24.838      28.854      -8.502
  P      -24.748      33.810      -8.803
  C      -22.435      34.585      -9.605
  O      -23.786      34.369      -9.959
  O      -25.382      34.847      -7.937
  O      -25.841      32.975      -9.628
  H      -26.575      33.561      -9.888
  H      -21.812      34.451     -10.493
  H      -22.106      33.886      -8.832
  H      -22.318      35.610      -9.242
  H      -21.048      26.209      -5.939
  H      -21.038      27.724      -6.809
  H      -20.256      26.319      -7.493

 3  4  5  6  7  8  9  10  11  12  13  23  28  29  30  31  32 0
 6-311+G(2d,p)
 ****
 33  34 0
 6-311+G(2d,p)
 ****
 1  2  14  15  16  17  18  19  20  21  22  24  25  26  27 0
 3-21G
 ****
 35  36  37  38  39  40  41  42  43  44  45 0
 3-21G
 ****


