%nproc=1
%NoSave
%Mem=1900MB
#P OB98/GEN NMR

erre ene a

0 1
  C      427.153     347.027    -768.506
  O      427.051     347.553    -769.812
  P      425.897     348.604    -770.177
  C      425.054     346.893    -771.905
  O      425.344     348.262    -771.645
  C      425.306     346.563    -773.376
  O      424.347     347.233    -774.222
  C      426.664     347.013    -773.888
  O      427.715     346.201    -773.395
  C      426.445     346.943    -775.391
  O      426.587     345.594    -775.866
  C      424.975     347.402    -775.513
  N      424.866     348.775    -775.981
  C      423.646     349.128    -776.577
  O      422.770     348.281    -776.756
  N      423.463     350.434    -776.961
  C      424.441     351.279    -776.878
  N      424.184     352.573    -777.214
  C      425.793     350.907    -776.411
  C      425.927     349.658    -775.955
  O      426.253     350.037    -769.960
  O      424.673     348.173    -769.232
  H      424.342     348.965    -768.764
  H      426.327     345.601    -776.816
  H      426.597     351.631    -776.422
  H      426.872     349.300    -775.572
  H      424.426     346.752    -776.201
  H      427.161     347.556    -775.948
  H      426.841     348.055    -773.594
  H      425.181     345.481    -773.503
  H      423.243     352.796    -777.521
  H      424.006     346.708    -771.657
  H      424.751     353.347    -776.888
  H      425.674     346.264    -771.255
  P      429.052     346.954    -772.916
  C      430.508     345.155    -774.087
  O      430.230     345.871    -772.891
  O      428.775     347.248    -771.366
  O      429.362     348.209    -773.661
  H      429.160     348.110    -771.120
  H      431.517     344.740    -774.011
  H      430.457     345.809    -774.959
  H      429.794     344.341    -774.198
  H      427.978     346.348    -768.458
  H      426.250     346.509    -768.259
  H      427.308     347.826    -767.811

 3  4  5  6  7  8  9  10  11  12  13  24  27  28  29  30  32 0
 6-311+G(2d,p)
 ****
 34  35 0
 6-311+G(2d,p)
 ****
 1  2  14  15  16  17  18  19  20  21  22  23  25  26 0
 3-21G
 ****
 31  33  36  37  38  39  40  41  42  43  44  45  46 0
 3-21G
 ****


