%nproc=1
%NoSave
%Mem=1900MB
#P OB98/GEN NMR

erre ene a

0 1
  C     -174.399     564.548     303.992
  O     -174.924     565.798     304.459
  P     -175.772     565.761     305.824
  C     -178.014     565.272     304.586
  O     -177.059     564.844     305.566
  C     -179.287     564.439     304.678
  O     -179.953     564.614     305.953
  C     -180.346     564.793     303.629
  O     -180.065     564.227     302.359
  C     -181.588     564.190     304.244
  O     -181.657     562.779     303.934
  C     -181.343     564.383     305.756
  N     -185.502     565.810     308.296
  C     -185.079     564.536     307.940
  N     -185.867     563.516     308.309
  N     -183.995     564.308     307.258
  C     -183.302     565.435     306.961
  C     -183.607     566.741     307.269
  C     -184.824     566.988     308.009
  O     -185.266     568.090     308.330
  N     -182.649     567.606     306.816
  C     -181.761     566.841     306.246
  N     -182.097     565.501     306.316
  O     -176.381     567.237     305.911
  O     -174.959     565.416     307.030
  H     -180.900     562.357     304.385
  H     -176.544     567.476     306.847
  H     -186.357     565.934     308.842
  H     -180.836     567.176     305.792
  H     -181.621     563.482     306.326
  H     -182.525     564.628     303.867
  H     -186.677     563.603     308.923
  H     -180.472     565.898     303.566
  H     -185.548     562.566     308.093
  H     -179.032     563.385     304.566
  H     -177.580     565.174     303.577
  H     -178.216     566.342     304.727
  P     -179.436     565.187     301.238
  C     -181.524     565.240     299.653
  O     -180.706     565.947     300.587
  O     -179.006     564.148     300.112
  O     -178.318     566.031     301.691
  H     -178.255     564.525     299.571
  H     -181.713     564.229     299.979
  H     -181.025     565.263     298.665
  H     -182.467     565.789     299.566
  H     -173.859     564.706     303.082
  H     -175.205     563.867     303.815
  H     -173.742     564.139     304.731

 3  4  5  6  7  8  9  10  11  12  23  26  30  31  33  0
 6-311+G(2d,p)
 ****
 35  36  37  38 0
 6-311+G(2d,p)
 ****
 1  2  13  14  15  16  17  18  19  20  21  22  24  25  27  28  29 0
 3-21G
 ****
 32  34  39  40  41  42  43  44  45  46  47  48  49 0
 3-21G
 ****


