%nproc=1
%NoSave
%Mem=1900MB
#P OB98/GEN NMR

erre ene a

0 1
  C      443.861      88.240    -496.140
  O      443.373      87.073    -495.511
  H      443.046      88.964    -496.217
  H      444.214      87.999    -497.146
  H      444.674      88.684    -495.557
  P      444.460      85.961    -495.114
  C      443.564      83.970    -496.520
  O      443.720      84.540    -495.227
  C      442.476      82.899    -496.495
  O      442.840      81.833    -495.589
  C      441.112      83.403    -496.034
  O      440.394      84.026    -497.092
  C      440.457      82.095    -495.622
  O      440.024      81.376    -496.794
  C      441.621      81.358    -494.947
  N      439.574      80.333    -490.424
  C      439.185      79.926    -491.687
  N      438.088      79.145    -491.757
  N      439.811      80.263    -492.785
  C      440.884      81.060    -492.564
  C      441.369      81.526    -491.363
  C      440.672      81.143    -490.156
  O      440.987      81.452    -489.010
  N      442.486      82.298    -491.540
  C      442.666      82.319    -492.845
  N      441.718      81.586    -493.514
  O      444.633      86.158    -493.533
  O      445.768      86.063    -495.820
  H      440.764      81.400    -497.426
  H      445.566      85.992    -493.294
  H      439.050      80.055    -489.612
  H      443.464      82.844    -493.352
  H      441.571      80.274    -495.096
  H      439.577      82.245    -494.993
  H      437.532      78.890    -490.953
  H      441.199      84.060    -495.160
  H      437.803      78.806    -492.666
  H      442.407      82.466    -497.503
  H      444.510      83.513    -496.830
  H      443.299      84.762    -497.228
  P      439.275      85.109    -496.695
  C      437.028      85.064    -497.995
  O      438.420      85.356    -498.029
  O      440.121      86.459    -496.541
  O      438.498      84.791    -495.463
  H      439.648      87.088    -495.965
  H      436.595      85.277    -498.950
  H      436.555      85.666    -497.247
  H      436.886      84.029    -497.762

 6  7  8  9  10  11  12  13  14  15  26  29  33  34 0
 6-311+G(2d,p)
 ****
 36  38  39  40  41 0
 6-311+G(2d,p)
 ****
 1  2  3  4  5  16  17  18  19  20  21  22  23  24  25 0
 3-21G
 ****
 27  28  30  31  32  35  37  42  43  44  45  46  47 0
 3-21G
 ****
 48  49 0
 3-21G
 ****


