%nproc=1
%NoSave
%Mem=1900MB
#P OB98/GEN NMR

erre ene a

0 1
  C       88.312    -255.103      27.393
  O       89.150    -254.423      28.306
  H       87.290    -255.091      27.779
  H       88.629    -256.143      27.275
  H       88.325    -254.598      26.423
  P       90.733    -254.433      28.058
  C       90.887    -251.923      28.611
  O       91.339    -253.231      28.932
  C       91.546    -250.883      29.519
  O       90.814    -250.837      30.774
  C       93.016    -251.188      29.834
  O       93.730    -249.951      29.879
  C       92.938    -251.808      31.213
  O       94.161    -251.683      31.910
  C       91.753    -251.065      31.841
  N       91.165    -251.838      32.934
  C       91.166    -251.235      34.197
  O       91.634    -250.106      34.345
  N       90.702    -251.948      35.272
  C       90.321    -253.176      35.114
  N       89.908    -253.839      36.229
  C       90.325    -253.862      33.805
  C       90.754    -253.142      32.771
  O       91.176    -254.453      26.632
  O       91.229    -255.738      28.842
  H       94.899    -251.966      31.329
  H       91.226    -256.510      28.244
  H       90.004    -254.889      33.730
  H       90.805    -253.567      31.772
  H       92.069    -250.090      32.230
  H       92.708    -252.878      31.124
  H       93.479    -251.861      29.107
  H       91.439    -249.897      29.053
  H       89.944    -253.337      37.109
  H       89.800    -251.898      28.753
  H       89.629    -254.807      36.238
  H       91.110    -251.700      27.562
  P       94.685    -249.512      28.667
  C       93.988    -247.050      28.748
  O       95.077    -247.961      28.841
  O       94.176    -249.872      27.308
  O       96.065    -250.274      28.969
  H       96.515    -250.471      28.125
  H       94.347    -246.050      28.876
  H       93.271    -247.272      29.511
  H       93.526    -247.143      27.787

 6  7  8  9  10  11  12  13  14  15  16  26  30  31  32  33  35 0
 6-311+G(2d,p)
 ****
 37  38 0
 6-311+G(2d,p)
 ****
 1  2  3  4  5  17  18  19  20  21  22  23  24  25 0
 3-21G
 ****
 27  28  29  34  36  39  40  41  42  43  44  45  46 0
 3-21G
 ****


