%nproc=1
%NoSave
%Mem=1900MB
#P OB98/GEN NMR

erre ene a

0 1
  C      236.406     141.163      62.093
  O      237.027     140.899      63.337
  H      235.625     140.422      61.910
  H      235.946     142.154      62.134
  H      237.137     141.146      61.282
  P      238.016     139.639      63.409
  C      237.692     137.066      63.314
  O      237.123     138.343      63.073
  C      236.621     135.979      63.218
  O      235.602     136.242      64.223
  C      235.923     135.898      61.851
  O      235.692     134.520      61.540
  C      234.590     136.577      62.103
  O      233.571     136.142      61.207
  C      234.331     136.194      63.558
  N      229.500     137.780      63.388
  C      230.112     136.692      62.872
  N      231.398     136.315      63.010
  C      232.053     137.156      63.830
  C      231.565     138.302      64.433
  C      230.221     138.616      64.172
  N      229.607     139.759      64.634
  N      232.563     138.931      65.153
  C      233.640     138.190      64.963
  N      233.382     137.110      64.169
  O      238.291     139.508      64.984
  O      239.282     139.767      62.632
  H      233.845     136.347      60.292
  H      239.045     140.072      65.232
  H      229.489     136.044      62.257
  H      234.626     138.409      65.348
  H      233.921     135.182      63.663
  H      234.703     137.659      61.995
  H      236.486     136.371      61.038
  H      237.081     135.016      63.472
  H      238.126     137.048      64.320
  H      228.674     139.956      64.304
  H      230.159     140.445      65.126
  H      238.489     136.881      62.584
  P      236.197     133.993      60.111
  C      235.347     134.109      57.652
  O      235.039     134.252      59.035
  O      236.190     132.403      60.286
  O      237.549     134.499      59.721
  H      236.904     132.001      59.757
  H      234.474     134.314      57.069
  H      235.676     133.109      57.461
  H      236.123     134.796      57.386

 6  7  8  9  10  11  12  13  14  15  25  28  32  33  34  35 0
 6-311+G(2d,p)
 ****
 36  39  40 0
 6-311+G(2d,p)
 ****
 1  2  3  4  5  16  17  18  19  20  21  22  23  24 0
 3-21G
 ****
 26  27  29  30  31  37  38  41  42  43  44  45  46  47 0
 3-21G
 ****
 48 0
 3-21G
 ****


