%nproc=1
%NoSave
%Mem=1900MB
#P OB98/GEN NMR

erre ene a

0 1
  C     -247.290    -216.949     334.067
  O     -248.577    -217.234     333.533
  P     -249.796    -217.634     334.501
  C     -250.859    -215.327     334.084
  O     -250.412    -216.256     335.063
  C     -252.376    -215.140     334.180
  O     -252.698    -214.652     335.505
  C     -252.918    -214.119     333.173
  O     -254.210    -214.551     332.741
  C     -253.097    -212.836     333.987
  O     -254.111    -211.997     333.416
  C     -253.426    -213.409     335.372
  N     -253.792    -208.664     337.309
  C     -254.337    -209.226     336.205
  N     -254.181    -210.487     335.747
  C     -253.395    -211.205     336.565
  C     -252.771    -210.763     337.723
  C     -252.988    -209.418     338.087
  N     -252.440    -208.843     339.215
  N     -252.013    -211.770     338.291
  C     -252.199    -212.812     337.508
  N     -253.035    -212.519     336.453
  O     -249.463    -218.640     335.550
  O     -250.934    -218.163     333.513
  H     -253.958    -211.990     332.447
  H     -251.396    -218.922     333.915
  H     -254.993    -208.589     335.621
  H     -251.757    -213.789     337.644
  H     -254.495    -213.631     335.471
  H     -252.154    -212.283     333.998
  H     -252.261    -213.966     332.315
  H     -252.862    -216.102     334.045
  H     -250.605    -215.718     333.087
  H     -252.746    -207.911     339.470
  H     -251.981    -209.451     339.889
  H     -250.336    -214.367     334.223
  P     -254.715    -213.947     331.322
  C     -253.371    -215.818     330.097
  O     -253.611    -214.436     330.260
  O     -254.979    -212.473     331.401
  O     -256.003    -214.854     331.038
  H     -255.938    -215.719     331.503
  H     -252.557    -215.946     329.354
  H     -254.259    -216.317     329.716
  H     -253.053    -216.267     331.036
  H     -246.619    -216.706     333.270
  H     -246.924    -217.806     334.592
  H     -247.359    -216.121     334.741

 3  4  5  6  7  8  9  10  11  12  22  25  29  30  31  32 0
 6-311+G(2d,p)
 ****
 33  36  37 0
 6-311+G(2d,p)
 ****
 1  2  13  14  15  16  17  18  19  20  21  23  24  26 0
 3-21G
 ****
 27  28  34  35  38  39  40  41  42  43  44  45  46  47  48 0
 3-21G
 ****


