%nproc=1
%NoSave
%Mem=1900MB
#P OB98/GEN NMR

erre ene a

0 1
  C      115.880     182.106      20.064
  O      116.316     181.944      18.717
  P      117.730     181.241      18.449
  C      116.784     178.860      17.790
  O      117.591     179.660      18.624
  C      117.460     177.492      17.593
  O      118.538     177.598      16.639
  C      118.054     176.922      18.878
  O      117.099     176.194      19.627
  C      119.186     176.067      18.347
  O      118.676     174.823      17.831
  C      119.719     176.953      17.195
  N      120.718     177.992      17.521
  C      122.077     177.711      17.397
  O      122.528     176.629      17.030
  N      122.933     178.737      17.703
  C      122.586     180.032      17.946
  O      123.400     180.922      18.155
  C      121.147     180.311      17.918
  C      120.297     179.299      17.724
  O      118.619     181.687      19.699
  O      118.367     181.613      17.147
  H      119.439     174.315      17.500
  H      119.363     182.246      19.406
  H      123.920     178.530      17.689
  H      120.828     181.335      18.059
  H      119.227     179.496      17.702
  H      120.157     176.332      16.404
  H      119.885     175.803      19.137
  H      118.492     177.724      19.479
  H      116.716     176.794      17.186
  H      116.627     179.339      16.821
  H      115.797     178.732      18.245
  P      115.948     176.972      20.423
  C      114.491     176.427      18.385
  O      114.880     177.421      19.312
  O      116.405     178.046      21.352
  O      115.170     175.802      21.196
  H      115.499     175.714      22.121
  H      113.656     176.809      17.791
  H      114.171     175.522      18.906
  H      115.324     176.197      17.715
  H      114.925     182.588      20.074
  H      116.588     182.705      20.598
  H      115.800     181.147      20.531

 3  4  5  6  7  8  9  10  11  12  13  23  28  29  30  31  32 0
 6-311+G(2d,p)
 ****
 33  34 0
 6-311+G(2d,p)
 ****
 1  2  14  15  16  17  18  19  20  21  22  24  25  26  27 0
 3-21G
 ****
 35  36  37  38  39  40  41  42  43  44  45 0
 3-21G
 ****


