%nproc=1
%NoSave
%Mem=1900MB
#P OB98/GEN NMR

erre ene a

0 1
  C     -854.615      93.416    -494.763
  O     -855.673      93.425    -493.802
  P     -855.310      93.478    -492.254
  C     -855.340      90.845    -491.998
  O     -854.698      92.082    -491.780
  C     -854.401      89.695    -491.586
  O     -853.986      89.869    -490.209
  C     -855.027      88.318    -491.709
  O     -854.887      87.779    -493.003
  C     -854.280      87.534    -490.642
  O     -852.973      87.165    -491.122
  C     -854.155      88.589    -489.514
  N     -855.276      88.727    -488.559
  C     -855.646      87.635    -487.766
  O     -855.085      86.547    -487.798
  N     -856.683      87.838    -486.900
  C     -857.281      89.041    -486.621
  O     -858.169      89.179    -485.779
  C     -856.754      90.193    -487.377
  C     -855.818      89.989    -488.299
  O     -856.739      93.531    -491.519
  O     -854.443      94.647    -491.863
  H     -852.469      87.984    -491.246
  H     -856.854      94.383    -491.060
  H     -857.009      87.060    -486.370
  H     -857.165      91.169    -487.152
  H     -855.422      90.828    -488.871
  H     -853.252      88.423    -488.923
  H     -854.796      86.600    -490.393
  H     -856.086      88.359    -491.415
  H     -853.490      89.757    -492.220
  H     -855.612      90.733    -493.052
  H     -856.263      90.799    -491.414
  P     -856.181      87.635    -493.956
  C     -857.053      85.630    -492.646
  O     -857.309      86.957    -493.040
  O     -855.950      87.007    -495.289
  O     -856.711      89.154    -494.075
  H     -856.375      89.573    -494.917
  H     -857.820      85.320    -491.908
  H     -856.075      85.538    -492.178
  H     -857.131      84.949    -493.516
  H     -855.029      93.379    -495.749
  H     -853.996      92.558    -494.604
  H     -854.028      94.304    -494.656

 3  4  5  6  7  8  9  10  11  12  13  23  28  29  30  31  32 0
 6-311+G(2d,p)
 ****
 33  34 0
 6-311+G(2d,p)
 ****
 1  2  14  15  16  17  18  19  20  21  22  24  25  26  27 0
 3-21G
 ****
 35  36  37  38  39  40  41  42  43  44  45 0
 3-21G
 ****


