%nproc=1
%NoSave
%Mem=1900MB
#P OB98/GEN NMR

erre ene a

0 1
  C       34.803    -574.108    -625.114
  O       35.662    -573.274    -624.360
  H       34.586    -573.653    -626.081
  H       35.289    -575.073    -625.266
  H       33.866    -574.264    -624.567
  P       35.166    -571.765    -624.113
  C       36.808    -571.896    -622.109
  O       36.233    -571.081    -623.128
  C       38.280    -571.518    -621.909
  O       38.429    -570.071    -621.972
  C       38.855    -571.928    -620.557
  O       39.212    -573.302    -620.526
  C       40.096    -571.022    -620.506
  O       41.153    -571.609    -621.291
  C       39.595    -569.741    -621.169
  N       41.194    -565.575    -618.612
  C       41.822    -566.393    -619.483
  N       41.339    -567.491    -620.128
  C       40.050    -567.707    -619.781
  C       39.289    -566.960    -618.898
  C       39.908    -565.853    -618.296
  N       39.256    -565.022    -617.397
  N       38.007    -567.471    -618.817
  C       37.998    -568.516    -619.632
  N       39.240    -568.697    -620.241
  O       33.868    -571.948    -623.181
  O       34.840    -570.999    -625.344
  H       41.358    -572.470    -620.876
  H       33.208    -571.269    -623.419
  H       42.858    -566.134    -619.728
  H       37.146    -569.155    -619.804
  H       40.353    -569.334    -621.863
  H       40.470    -570.893    -619.481
  H       38.176    -571.669    -619.742
  H       38.857    -571.958    -622.732
  H       36.753    -572.951    -622.417
  H       39.672    -564.148    -617.145
  H       38.281    -565.248    -617.166
  H       36.243    -571.754    -621.190
  P       39.430    -573.981    -619.099
  C       39.173    -576.214    -620.393
  O       39.884    -575.495    -619.374
  O       37.924    -574.136    -618.515
  O       40.299    -573.204    -618.143
  H       37.947    -574.146    -617.540
  H       39.571    -577.204    -620.475
  H       39.281    -575.707    -621.329
  H       38.136    -576.267    -620.134

 6  7  8  9  10  11  12  13  14  15  25  28  32  33  34  35 0
 6-311+G(2d,p)
 ****
 36  39  40 0
 6-311+G(2d,p)
 ****
 1  2  3  4  5  16  17  18  19  20  21  22  23  24 0
 3-21G
 ****
 26  27  29  30  31  37  38  41  42  43  44  45  46  47  48 0
 3-21G
 ****


