%nproc=1
%NoSave
%Mem=1900MB
#P OB98/GEN NMR

erre ene a

0 1
  C     -530.973    -700.162    -175.522
  O     -530.974    -700.987    -174.372
  P     -532.337    -701.573    -173.775
  C     -531.278    -703.829    -173.190
  O     -531.965    -702.697    -172.691
  C     -530.954    -704.830    -172.069
  O     -529.952    -704.263    -171.187
  C     -532.178    -705.213    -171.210
  O     -532.050    -706.600    -170.898
  C     -531.985    -704.361    -169.967
  O     -532.686    -704.893    -168.842
  C     -530.463    -704.352    -169.849
  N     -529.975    -703.264    -169.012
  C     -530.107    -703.414    -167.632
  O     -530.728    -704.369    -167.170
  N     -529.539    -702.463    -166.810
  C     -529.052    -701.387    -167.337
  N     -528.434    -700.500    -166.489
  C     -529.122    -701.080    -168.777
  C     -529.551    -702.069    -169.555
  O     -533.341    -702.002    -174.792
  O     -532.917    -700.377    -172.869
  H     -533.839    -700.185    -173.142
  H     -532.500    -704.324    -168.063
  H     -528.823    -700.103    -169.145
  H     -529.616    -701.954    -170.633
  H     -530.104    -705.304    -169.424
  H     -532.364    -703.353    -170.153
  H     -533.127    -705.039    -171.718
  H     -530.528    -705.724    -172.529
  H     -528.372    -700.761    -165.513
  H     -530.337    -703.487    -173.637
  H     -527.770    -699.810    -166.834
  H     -531.865    -704.309    -173.978
  P     -533.336    -707.375    -170.335
  C     -533.071    -709.004    -172.350
  O     -533.342    -708.853    -170.962
  O     -534.526    -706.670    -171.161
  O     -533.601    -707.262    -168.866
  H     -535.355    -706.747    -170.646
  H     -533.183    -710.063    -172.604
  H     -532.052    -708.689    -172.569
  H     -533.778    -708.423    -172.942
  H     -529.968    -699.878    -175.756
  H     -531.557    -699.285    -175.333
  H     -531.393    -700.699    -176.347

 3  4  5  6  7  8  9  10  11  12  13  24  27  28  29  30  32 0
 6-311+G(2d,p)
 ****
 34  35 0
 6-311+G(2d,p)
 ****
 1  2  14  15  16  17  18  19  20  21  22  23  25  26 0
 3-21G
 ****
 31  33  36  37  38  39  40  41  42  43  44  45  46 0
 3-21G
 ****


