%nproc=1
%NoSave
%Mem=1900MB
#P OB98/GEN NMR

erre ene a

0 1
  C     -199.683     266.409      78.778
  O     -198.754     265.378      78.531
  H     -199.136     267.356      78.852
  H     -200.208     266.239      79.723
  H     -200.399     266.485      77.960
  P     -199.259     263.851      78.562
  C     -198.241     263.635      80.909
  O     -198.256     263.108      79.589
  C     -196.847     263.544      81.534
  O     -196.512     262.154      81.786
  C     -195.735     264.137      80.657
  O     -194.892     264.976      81.454
  C     -194.964     262.915      80.177
  O     -193.621     263.233      79.822
  C     -195.144     261.966      81.368
  N     -194.863     260.573      81.033
  C     -194.011     259.884      81.898
  O     -193.501     260.459      82.865
  N     -193.713     258.568      81.630
  C     -194.188     258.005      80.565
  N     -193.853     256.709      80.347
  C     -195.058     258.714      79.595
  C     -195.357     259.981      79.894
  O     -199.378     263.204      77.224
  O     -200.634     263.901      79.379
  H     -193.183     263.645      80.597
  H     -201.167     263.087      79.180
  H     -195.418     258.211      78.714
  H     -195.997     260.572      79.243
  H     -194.490     262.263      82.204
  H     -195.461     262.495      79.290
  H     -196.108     264.727      79.820
  H     -196.874     264.029      82.520
  H     -193.257     256.259      81.033
  H     -198.968     263.078      81.518
  H     -194.161     256.173      79.544
  H     -198.543     264.690      80.865
  P     -195.350     266.507      81.600
  C     -193.104     267.376      80.628
  O     -194.027     267.413      81.711
  O     -195.978     266.565      83.067
  O     -196.326     266.938      80.558
  H     -196.950     266.533      83.020
  H     -192.279     268.023      80.840
  H     -193.591     267.701      79.733
  H     -192.748     266.376      80.497

 6  7  8  9  10  11  12  13  14  15  16  26  30  31  32  33  35 0
 6-311+G(2d,p)
 ****
 37  38 0
 6-311+G(2d,p)
 ****
 1  2  3  4  5  17  18  19  20  21  22  23  24  25 0
 3-21G
 ****
 27  28  29  34  36  39  40  41  42  43  44  45  46 0
 3-21G
 ****


