%nproc=1
%NoSave
%Mem=1900MB
#P OB98/GEN NMR

erre ene a

0 1
  C     -211.205    -137.421      11.405
  O     -211.132    -138.214      10.241
  H     -211.509    -136.409      11.116
  H     -210.227    -137.360      11.888
  H     -211.946    -137.824      12.100
  P     -210.664    -139.746      10.364
  C     -208.350    -139.443       9.291
  O     -209.058    -139.690      10.498
  C     -206.884    -139.861       9.416
  O     -206.806    -141.175      10.033
  C     -206.144    -139.936       8.072
  O     -204.881    -139.273       8.179
  C     -205.924    -141.427       7.868
  O     -204.821    -141.716       7.015
  C     -205.789    -141.899       9.320
  N     -205.940    -143.344       9.442
  C     -204.773    -144.100       9.296
  O     -203.693    -143.546       9.079
  N     -204.865    -145.468       9.337
  C     -206.026    -146.031       9.469
  N     -206.046    -147.393       9.475
  C     -207.284    -145.273       9.599
  C     -207.170    -143.944       9.581
  O     -211.177    -140.642       9.284
  O     -211.124    -140.200      11.827
  H     -204.011    -141.318       7.406
  H     -211.198    -141.183      11.849
  H     -208.226    -145.792       9.701
  H     -208.040    -143.301       9.671
  H     -204.811    -141.614       9.733
  H     -206.824    -141.866       7.417
  H     -206.705    -139.498       7.247
  H     -206.383    -139.170      10.108
  H     -205.159    -147.877       9.375
  H     -208.424    -138.376       9.054
  H     -206.890    -147.941       9.546
  H     -208.820    -140.023       8.489
  P     -204.825    -137.758       7.652
  C     -203.614    -138.276       5.413
  O     -204.790    -137.796       6.048
  O     -203.353    -137.279       8.060
  O     -205.875    -136.882       8.249
  H     -203.409    -136.622       8.781
  H     -203.742    -138.241       4.351
  H     -203.431    -139.286       5.717
  H     -202.782    -137.663       5.692

 6  7  8  9  10  11  12  13  14  15  16  26  30  31  32  33  35 0
 6-311+G(2d,p)
 ****
 37  38 0
 6-311+G(2d,p)
 ****
 1  2  3  4  5  17  18  19  20  21  22  23  24  25 0
 3-21G
 ****
 27  28  29  34  36  39  40  41  42  43  44  45  46 0
 3-21G
 ****


