%nproc=1
%NoSave
%Mem=1900MB
#P OB98/GEN NMR

erre ene a

0 1
  C      191.184     456.899     119.758
  O      192.196     455.913     119.816
  H      190.520     456.771     120.616
  H      190.600     456.779     118.840
  H      191.623     457.900     119.794
  P      193.384     456.032     118.742
  C      195.058     456.569     120.693
  O      194.508     456.937     119.441
  C      195.459     457.810     121.493
  O      194.272     458.605     121.742
  C      196.098     457.492     122.845
  O      197.104     458.472     123.112
  C      194.953     457.668     123.826
  O      195.413     457.932     125.148
  C      194.168     458.813     123.165
  N      192.774     458.857     123.604
  C      192.535     459.366     124.883
  O      193.471     459.736     125.591
  N      191.246     459.406     125.352
  C      190.285     458.916     124.634
  N      189.033     458.962     125.164
  C      190.497     458.329     123.294
  C      191.749     458.343     122.843
  O      192.737     457.006     117.649
  O      193.861     454.727     118.202
  H      196.020     457.206     125.418
  H      192.272     457.766     118.033
  H      189.665     457.927     122.737
  H      191.995     457.939     121.867
  H      194.633     459.780     123.395
  H      194.341     456.758     123.858
  H      196.538     456.492     122.881
  H      196.126     458.421     120.875
  H      188.937     459.351     126.094
  H      195.936     455.931     120.550
  H      188.220     458.561     124.719
  H      194.305     455.993     121.238
  P      198.524     458.362     122.382
  C      198.298     460.607     121.113
  O      198.482     459.198     121.015
  O      199.094     456.990     122.271
  O      199.467     459.280     123.312
  H      200.327     458.829     123.397
  H      198.290     461.035     120.132
  H      199.099     461.033     121.681
  H      197.367     460.812     121.599

 6  7  8  9  10  11  12  13  14  15  16  26  30  31  32  33  35 0
 6-311+G(2d,p)
 ****
 37  38 0
 6-311+G(2d,p)
 ****
 1  2  3  4  5  17  18  19  20  21  22  23  24  25 0
 3-21G
 ****
 27  28  29  34  36  39  40  41  42  43  44  45  46 0
 3-21G
 ****


