%nproc=1
%NoSave
%Mem=1900MB
#P OB98/GEN NMR

erre ene a

0 1
  C      444.061     626.434     277.340
  O      444.072     627.073     278.611
  P      443.581     628.589     278.690
  C      445.759     629.514     279.771
  O      444.370     629.268     279.918
  C      446.374     629.993     281.093
  O      445.702     631.224     281.494
  C      446.257     628.998     282.254
  O      447.438     629.146     283.039
  C      445.033     629.523     282.992
  O      444.913     629.036     284.312
  C      445.252     631.024     282.842
  N      442.252     633.027     286.487
  C      443.438     632.374     286.545
  N      444.180     631.873     285.534
  C      443.577     632.118     284.355
  C      442.378     632.740     284.130
  C      441.690     633.222     285.268
  N      440.486     633.877     285.202
  N      442.083     632.793     282.776
  C      443.101     632.189     282.205
  N      444.047     631.781     283.106
  O      442.085     628.475     279.238
  O      443.651     629.352     277.394
  H      445.048     628.079     284.347
  H      441.501     629.120     278.806
  H      443.834     632.222     287.558
  H      443.188     632.014     281.145
  H      446.023     631.399     283.524
  H      444.134     629.206     282.452
  H      446.175     627.957     281.923
  H      447.431     630.250     280.908
  H      445.911     630.291     279.013
  H      439.979     633.992     286.069
  H      439.983     633.839     284.310
  H      446.259     628.606     279.420
  P      448.129     627.849     283.683
  C      448.427     629.036     285.934
  O      449.075     628.440     284.834
  O      449.191     627.468     282.548
  O      447.191     626.747     284.051
  H      449.741     628.239     282.294
  H      449.168     629.307     286.696
  H      447.704     628.335     286.389
  H      447.908     629.949     285.626
  H      444.414     625.429     277.443
  H      444.698     626.968     276.667
  H      443.063     626.424     276.955

 3  4  5  6  7  8  9  10  11  12  22  25  29  30  31  32 0
 6-311+G(2d,p)
 ****
 33  36  37 0
 6-311+G(2d,p)
 ****
 1  2  13  14  15  16  17  18  19  20  21  23  24  26 0
 3-21G
 ****
 27  28  34  35  38  39  40  41  42  43  44  45  46  47  48 0
 3-21G
 ****


