%nproc=1
%NoSave
%Mem=1900MB
#P OB98/GEN NMR

erre ene a

0 1
  C     -149.841     -18.194     443.223
  O     -149.898     -18.150     444.639
  P     -148.730     -18.647     445.614
  C     -149.020     -16.693     447.374
  O     -149.028     -18.108     447.096
  C     -149.871     -16.376     448.607
  O     -151.289     -16.517     448.260
  C     -149.581     -17.332     449.790
  O     -149.513     -16.681     451.054
  C     -150.644     -18.404     449.615
  O     -150.885     -19.164     450.789
  C     -151.830     -17.616     449.075
  N     -155.613     -21.049     449.148
  C     -154.808     -20.611     450.194
  N     -155.024     -21.163     451.391
  N     -153.868     -19.710     450.040
  C     -153.703     -19.302     448.759
  C     -154.426     -19.673     447.650
  C     -155.494     -20.629     447.829
  O     -156.241     -21.033     446.953
  N     -153.982     -19.029     446.521
  C     -152.974     -18.289     446.935
  N     -152.785     -18.416     448.297
  O     -147.338     -18.494     445.095
  O     -149.011     -20.236     445.757
  H     -151.536     -19.848     450.581
  H     -148.133     -20.655     445.881
  H     -156.333     -21.725     449.329
  H     -152.373     -17.630     446.307
  H     -152.419     -17.139     449.872
  H     -150.301     -19.124     448.837
  H     -155.664     -21.935     451.550
  H     -148.582     -17.791     449.685
  H     -154.300     -21.009     452.084
  H     -149.684     -15.329     448.903
  H     -149.451     -16.213     446.463
  H     -147.985     -16.329     447.469
  P     -148.509     -16.959     452.262
  C     -148.325     -14.495     452.962
  O     -148.700     -15.794     453.349
  O     -147.059     -16.667     451.675
  O     -148.585     -18.352     452.826
  H     -146.498     -17.495     451.723
  H     -148.246     -13.859     453.840
  H     -149.063     -14.064     452.274
  H     -147.348     -14.518     452.450
  H     -150.750     -17.802     442.817
  H     -149.715     -19.207     442.902
  H     -149.015     -17.606     442.881

 3  4  5  6  7  8  9  10  11  12  23  26  30  31 0
 6-311+G(2d,p)
 ****
 33  35  36  37  38 0
 6-311+G(2d,p)
 ****
 1  2  13  14  15  16  17  18  19  20  21  22  24  25 0
 3-21G
 ****
 27  28  29  32  34  39  40  41  42  43  44  45  46  47  48  49 0
 3-21G
 ****


