%nproc=1
%NoSave
%Mem=1900MB
#P OB98/GEN NMR

erre ene a

0 1
  C     -498.199     919.818    -298.108
  O     -499.505     920.257    -298.417
  H     -497.608     919.806    -299.032
  H     -498.231     918.804    -297.701
  H     -497.720     920.495    -297.393
  P     -500.479     920.547    -297.171
  C     -501.761     922.462    -298.379
  O     -501.830     921.162    -297.783
  C     -503.076     922.768    -299.090
  O     -503.046     922.250    -300.444
  C     -504.321     922.179    -298.427
  O     -504.766     922.985    -297.354
  C     -505.290     922.202    -299.582
  O     -505.787     923.543    -299.775
  C     -504.406     921.798    -300.767
  N     -507.187     917.698    -301.847
  C     -507.593     919.013    -301.630
  N     -508.903     919.261    -301.721
  N     -506.752     919.983    -301.369
  C     -505.468     919.579    -301.308
  C     -504.951     918.308    -301.480
  C     -505.890     917.245    -301.794
  O     -505.586     916.064    -301.993
  N     -503.596     918.289    -301.351
  C     -503.272     919.544    -301.069
  N     -504.370     920.366    -301.024
  O     -499.796     921.797    -296.448
  O     -500.662     919.405    -296.222
  H     -505.054     924.074    -300.130
  H     -499.918     921.721    -295.477
  H     -507.877     916.988    -302.038
  H     -502.265     919.901    -300.898
  H     -504.699     922.276    -301.708
  H     -506.161     921.557    -299.418
  H     -509.602     918.556    -301.875
  H     -504.144     921.142    -298.112
  H     -509.203     920.223    -301.617
  H     -503.167     923.860    -299.170
  H     -500.944     922.464    -299.105
  H     -501.575     923.198    -297.604
  P     -505.174     922.240    -295.985
  C     -505.410     924.392    -294.537
  O     -506.064     923.304    -295.168
  O     -503.787     922.233    -295.172
  O     -505.736     920.890    -296.143
  H     -503.797     921.517    -294.498
  H     -506.134     925.003    -294.040
  H     -504.896     924.975    -295.273
  H     -504.706     924.019    -293.822

 6  7  8  9  10  11  12  13  14  15  26  29  33  34 0
 6-311+G(2d,p)
 ****
 36  38  39  40  41 0
 6-311+G(2d,p)
 ****
 1  2  3  4  5  16  17  18  19  20  21  22  23  24  25 0
 3-21G
 ****
 27  28  30  31  32  35  37  42  43  44  45  46  47 0
 3-21G
 ****
 48  49 0
 3-21G
 ****


