%nproc=1
%NoSave
%Mem=1900MB
#P OB98/GEN NMR

erre ene a

0 1
  C      241.114      34.119    -156.145
  O      241.591      35.328    -156.694
  H      240.035      34.206    -155.991
  H      241.592      33.930    -155.181
  H      241.307      33.287    -156.827
  P      243.161      35.413    -157.028
  C      242.781      36.467    -159.377
  O      243.298      36.636    -158.064
  C      242.785      37.800    -160.128
  O      241.913      38.732    -159.447
  C      244.171      38.440    -160.221
  O      244.368      38.960    -161.537
  C      244.131      39.562    -159.199
  O      245.037      40.617    -159.518
  C      242.646      39.946    -159.208
  N      242.241      40.573    -157.950
  C      242.832      41.801    -157.639
  O      243.663      42.300    -158.401
  N      242.514      42.407    -156.452
  C      241.720      41.812    -155.617
  N      241.459      42.455    -154.447
  C      241.111      40.495    -155.882
  C      241.407      39.942    -157.057
  O      243.404      34.121    -157.935
  O      244.060      35.500    -155.840
  H      244.814      40.947    -160.416
  H      244.368      33.928    -158.039
  H      240.468      40.031    -155.149
  H      241.007      38.972    -157.336
  H      242.431      40.641    -160.030
  H      244.409      39.168    -158.215
  H      244.977      37.741    -159.995
  H      242.356      37.638    -161.124
  H      241.904      43.352    -154.296
  H      241.758      36.086    -159.309
  H      240.880      42.072    -153.714
  H      243.400      35.742    -159.915
  P      245.761      38.581    -162.241
  C      244.730      37.459    -164.339
  O      245.503      38.532    -163.826
  O      245.978      37.048    -161.839
  O      246.898      39.449    -161.817
  H      246.599      36.976    -161.090
  H      244.643      37.558    -165.401
  H      243.755      37.479    -163.898
  H      245.209      36.531    -164.105

 6  7  8  9  10  11  12  13  14  15  16  26  30  31  32  33  35 0
 6-311+G(2d,p)
 ****
 37  38 0
 6-311+G(2d,p)
 ****
 1  2  3  4  5  17  18  19  20  21  22  23  24  25 0
 3-21G
 ****
 27  28  29  34  36  39  40  41  42  43  44  45  46 0
 3-21G
 ****


