%nproc=1
%NoSave
%Mem=1900MB
#P OB98/GEN NMR

erre ene a

0 1
  C       -2.744    -303.188    -889.370
  O       -2.442    -303.985    -890.490
  H       -1.950    -303.306    -888.640
  H       -3.686    -303.539    -888.920
  H       -2.832    -302.133    -889.630
  P       -3.250    -303.673    -891.850
  C       -5.360    -305.042    -891.220
  O       -4.242    -304.917    -892.080
  C       -6.435    -305.941    -891.870
  O       -7.065    -305.188    -892.980
  C       -5.883    -307.263    -892.450
  O       -6.873    -308.301    -892.240
  C       -5.822    -306.976    -893.930
  O       -5.859    -308.153    -894.720
  C       -7.040    -306.062    -894.110
  N       -6.383    -306.641    -899.050
  C       -6.595    -307.582    -898.070
  N       -6.565    -308.880    -898.420
  N       -6.819    -307.271    -896.810
  C       -6.825    -305.931    -896.590
  C       -6.644    -304.900    -897.470
  C       -6.387    -305.261    -898.860
  O       -6.171    -304.474    -899.770
  N       -6.679    -303.679    -896.850
  C       -6.875    -303.983    -895.560
  N       -6.964    -305.319    -895.370
  O       -2.131    -303.871    -892.990
  O       -3.887    -302.328    -891.920
  H       -5.975    -307.906    -895.660
  H       -1.735    -303.007    -893.190
  H       -6.210    -306.940    -900.000
  H       -6.928    -303.237    -894.760
  H       -7.998    -306.638    -894.130
  H       -4.892    -306.431    -894.160
  H       -6.439    -309.211    -899.380
  H       -4.944    -307.575    -892.030
  H       -6.749    -309.567    -897.720
  H       -7.238    -306.126    -891.110
  H       -5.787    -304.052    -891.030
  H       -5.042    -305.484    -890.260
  P       -6.988    -308.941    -890.780
  C       -6.051    -311.209    -891.650
  O       -7.086    -310.537    -890.940
  O       -8.471    -308.538    -890.310
  O       -5.947    -308.438    -889.810
  H       -8.475    -308.391    -889.330
  H       -6.256    -312.259    -891.671
  H       -5.114    -311.039    -891.161
  H       -6.004    -310.835    -892.651

 6  7  8  9  10  11  12  13  14  15  26  29  33  34 0
 6-311+G(2d,p)
 ****
 36  38  39  40  41 0
 6-311+G(2d,p)
 ****
 1  2  3  4  5  16  17  18  19  20  21  22  23  24  25 0
 3-21G
 ****
 27  28  30  31  32  35  37  42  43  44  45  46  47 0
 3-21G
 ****
 48  49 0
 3-21G
 ****


