%nproc=1
%NoSave
%Mem=1900MB
#P OB98/GEN NMR

erre ene a

0 1
  C      -72.134    -372.350      -0.546
  O      -71.403    -371.711      -1.576
  H      -71.901    -371.863       0.403
  H      -71.842    -373.401      -0.483
  H      -73.207    -372.271      -0.732
  P      -71.671    -372.217      -3.075
  C      -73.342    -371.515      -4.930
  O      -73.060    -371.549      -3.538
  C      -73.486    -370.072      -5.415
  O      -74.694    -369.496      -4.834
  C      -72.310    -369.157      -5.031
  O      -72.113    -368.217      -6.096
  C      -72.850    -368.398      -3.826
  O      -72.158    -367.173      -3.596
  C      -74.312    -368.234      -4.243
  N      -77.156    -364.561      -2.306
  C      -76.456    -364.622      -3.499
  N      -76.521    -363.535      -4.300
  N      -75.752    -365.657      -3.872
  C      -75.801    -366.686      -2.989
  C      -76.451    -366.748      -1.777
  C      -77.203    -365.582      -1.364
  O      -77.828    -365.460      -0.311
  N      -76.231    -367.958      -1.162
  C      -75.455    -368.620      -2.001
  N      -75.165    -367.892      -3.124
  O      -72.044    -373.760      -2.863
  O      -70.532    -372.041      -4.022
  H      -71.197    -367.368      -3.591
  H      -71.247    -374.316      -2.960
  H      -77.671    -363.732      -2.063
  H      -75.070    -369.624      -1.843
  H      -74.445    -367.448      -4.997
  H      -72.766    -369.014      -2.922
  H      -77.082    -362.722      -4.100
  H      -71.373    -369.684      -4.824
  H      -76.051    -363.579      -5.199
  H      -73.635    -370.081      -6.499
  H      -74.281    -372.050      -5.116
  H      -72.535    -372.012      -5.473
  P      -70.695    -368.212      -6.842
  C      -70.261    -370.475      -8.057
  O      -70.806    -369.164      -8.131
  O      -69.768    -369.067      -5.851
  O      -70.133    -366.848      -7.089
  H      -68.839    -368.784      -5.943
  H      -70.414    -370.978      -8.989
  H      -70.746    -371.019      -7.274
  H      -69.212    -370.414      -7.853

 6  7  8  9  10  11  12  13  14  15  26  29  33  34 0
 6-311+G(2d,p)
 ****
 36  38  39  40  41 0
 6-311+G(2d,p)
 ****
 1  2  3  4  5  16  17  18  19  20  21  22  23  24  25 0
 3-21G
 ****
 27  28  30  31  32  35  37  42  43  44  45  46  47 0
 3-21G
 ****
 48  49 0
 3-21G
 ****


