%nproc=1
%NoSave
%Mem=1900MB
#P OB98/GEN NMR

erre ene a

0 1
  C     -110.512     344.775    -221.458
  O     -110.695     345.207    -220.102
  P     -110.602     344.217    -218.839
  C     -110.387     346.056    -217.038
  O     -111.157     344.967    -217.528
  C     -110.808     346.456    -215.622
  O     -112.133     347.074    -215.646
  C     -110.868     345.290    -214.613
  O     -110.376     345.795    -213.371
  C     -112.364     344.999    -214.553
  O     -112.751     344.258    -213.412
  C     -112.907     346.432    -214.608
  N     -114.338     346.554    -214.879
  C     -115.228     346.010    -213.943
  O     -114.822     345.393    -212.949
  N     -116.576     346.147    -214.162
  C     -117.007     346.765    -215.213
  N     -118.356     346.879    -215.367
  C     -116.106     347.335    -216.236
  C     -114.802     347.197    -216.006
  O     -109.240     343.623    -218.647
  O     -111.682     343.068    -219.114
  H     -111.342     342.216    -218.777
  H     -112.463     344.747    -212.620
  H     -116.507     347.850    -217.099
  H     -114.073     347.617    -216.698
  H     -112.669     346.942    -213.667
  H     -112.645     344.427    -215.438
  H     -110.255     344.428    -214.906
  H     -110.114     347.226    -215.266
  H     -118.941     346.487    -214.633
  H     -110.531     346.908    -217.708
  H     -118.794     347.354    -216.144
  H     -109.326     345.775    -217.057
  P     -109.021     345.210    -212.753
  C     -107.936     347.435    -211.932
  O     -108.546     346.205    -211.584
  O     -107.965     345.535    -213.908
  O     -109.010     343.742    -212.438
  H     -107.218     344.901    -213.856
  H     -108.358     348.230    -211.305
  H     -108.084     347.694    -212.980
  H     -106.859     347.364    -211.728
  H     -110.621     345.611    -222.117
  H     -111.245     344.034    -221.698
  H     -109.533     344.358    -221.570

 3  4  5  6  7  8  9  10  11  12  13  24  27  28  29  30  32 0
 6-311+G(2d,p)
 ****
 34  35 0
 6-311+G(2d,p)
 ****
 1  2  14  15  16  17  18  19  20  21  22  23  25  26 0
 3-21G
 ****
 31  33  36  37  38  39  40  41  42  43  44  45  46 0
 3-21G
 ****


