%nproc=1
%NoSave
%Mem=1900MB
#P OB98/GEN NMR

erre ene a

0 1
  C       67.740      29.533     -23.992
  O       66.950      29.915     -22.884
  H       67.389      30.050     -24.887
  H       68.776      29.824     -23.802
  H       67.699      28.451     -24.144
  P       65.460      29.325     -22.806
  C       63.186      29.934     -23.898
  O       64.585      30.169     -23.858
  C       62.422      31.256     -23.907
  O       62.548      31.873     -22.594
  C       62.922      32.268     -24.950
  O       61.790      32.950     -25.499
  C       63.734      33.247     -24.123
  O       63.818      34.536     -24.721
  C       62.968      33.232     -22.804
  N       65.250      37.348     -20.883
  C       64.270      37.206     -21.799
  N       63.679      36.068     -22.217
  C       64.149      35.010     -21.535
  C       65.140      34.999     -20.569
  C       65.717      36.243     -20.257
  N       66.763      36.391     -19.375
  N       65.385      33.708     -20.144
  C       64.575      32.953     -20.861
  N       63.810      33.695     -21.716
  O       64.954      29.859     -21.383
  O       65.348      27.843     -22.919
  H       64.269      35.143     -24.102
  H       65.205      29.225     -20.688
  H       63.922      38.123     -22.267
  H       64.524      31.874     -20.822
  H       62.076      33.871     -22.826
  H       64.752      32.861     -23.992
  H       63.509      31.816     -25.758
  H       61.358      31.042     -24.058
  H       62.894      29.363     -23.011
  H       67.183      37.304     -19.295
  H       67.194      35.566     -18.985
  H       62.943      29.348     -24.789
  P       61.274      32.480     -26.942
  C       62.114      32.600     -29.403
  O       62.337      32.952     -28.042
  O       60.016      33.432     -27.210
  O       60.894      31.036     -27.008
  H       59.342      32.964     -27.733
  H       62.908      32.987     -30.006
  H       61.183      33.014     -29.730
  H       62.083      31.534     -29.495

 6  7  8  9  10  11  12  13  14  15  25  28  32  33  34  35 0
 6-311+G(2d,p)
 ****
 36  39  40 0
 6-311+G(2d,p)
 ****
 1  2  3  4  5  16  17  18  19  20  21  22  23  24 0
 3-21G
 ****
 26  27  29  30  31  37  38  41  42  43  44  45  46  47 0
 3-21G
 ****
 48 0
 3-21G
 ****


