%nproc=1
%NoSave
%Mem=1900MB
#P OB98/GEN NMR

erre ene a

0 1
  C     -267.535      11.136     162.910
  O     -268.666      10.541     162.295
  P     -269.796       9.917     163.250
  C     -271.073      12.210     163.047
  O     -270.577      11.169     163.875
  C     -272.603      12.199     163.047
  O     -273.088      11.082     162.272
  C     -273.236      12.044     164.422
  O     -273.200      13.256     165.161
  C     -274.636      11.568     164.054
  O     -275.455      12.682     163.663
  C     -274.352      10.666     162.836
  N     -274.340       9.241     163.163
  C     -275.257       8.448     162.480
  O     -276.040       8.891     161.643
  N     -275.254       7.118     162.808
  C     -274.490       6.529     163.775
  O     -274.560       5.340     164.058
  C     -273.566       7.425     164.485
  C     -273.534       8.717     164.153
  O     -268.892       9.363     164.449
  O     -270.642       8.898     162.570
  H     -268.061       9.863     164.537
  H     -275.368      13.350     164.372
  H     -275.893       6.516     162.309
  H     -272.949       6.996     165.265
  H     -272.866       9.392     164.673
  H     -275.101      10.833     162.054
  H     -275.142      11.063     164.882
  H     -272.717      11.257     164.985
  H     -272.952      13.123     162.565
  H     -270.706      12.058     162.027
  H     -270.696      13.169     163.416
  P     -273.324      13.127     166.759
  C     -271.060      11.839     166.963
  O     -272.453      11.851     167.175
  O     -274.841      12.644     166.916
  O     -273.000      14.392     167.489
  H     -275.092      11.972     166.260
  H     -270.612      11.079     167.610
  H     -270.612      12.808     167.194
  H     -270.851      11.579     165.921
  H     -266.872      11.506     162.156
  H     -267.027      10.406     163.505
  H     -267.853      11.945     163.534

 3  4  5  6  7  8  9  10  11  12  13  24  28  29  30  31  32 0
 6-311+G(2d,p)
 ****
 33  34 0
 6-311+G(2d,p)
 ****
 1  2  14  15  16  17  18  19  20  21  22  23  25  26  27 0
 3-21G
 ****
 35  36  37  38  39  40  41  42  43  44  45 0
 3-21G
 ****


