%nproc=1
%NoSave
%Mem=1900MB
#P OB98/GEN NMR

erre ene a

0 1
  C      162.435      60.542    -682.269
  O      162.562      59.877    -683.514
  P      163.356      60.558    -684.725
  C      161.422      61.279    -686.246
  O      162.422      61.716    -685.331
  C      161.656      61.855    -687.639
  O      160.675      61.291    -688.553
  C      161.535      63.390    -687.733
  O      162.479      63.823    -688.722
  C      160.127      63.591    -688.253
  O      159.933      64.857    -688.857
  C      160.025      62.411    -689.208
  N      156.366      62.484    -692.783
  C      157.625      62.970    -692.774
  N      158.532      62.928    -691.778
  C      158.020      62.313    -690.696
  C      156.738      61.794    -690.552
  C      155.894      61.882    -691.671
  N      154.621      61.365    -691.714
  N      156.566      61.285    -689.269
  C      157.730      61.494    -688.673
  N      158.645      62.059    -689.511
  O      163.912      59.602    -685.733
  O      164.535      61.370    -684.000
  H      160.465      64.900    -689.671
  H      165.381      60.909    -684.128
  H      157.964      63.456    -693.702
  H      157.947      61.263    -687.634
  H      160.543      62.590    -690.153
  H      159.411      63.499    -687.430
  H      161.726      63.899    -686.778
  H      162.641      61.530    -687.983
  H      160.452      61.623    -685.871
  H      154.149      61.363    -692.612
  H      154.344      60.682    -691.012
  H      161.414      60.185    -686.288
  P      163.470      65.040    -688.409
  C      161.911      66.808    -689.414
  O      162.549      66.344    -688.232
  O      164.625      65.195    -689.344
  O      163.967      64.752    -686.911
  H      164.775      65.273    -686.721
  H      162.628      67.403    -690.003
  H      161.065      67.440    -689.135
  H      161.555      65.975    -690.026
  H      161.875      59.930    -681.593
  H      161.927      61.473    -682.412
  H      163.407      60.725    -681.862

 3  4  5  6  7  8  9  10  11  12  22  25  29  30  31  32 0
 6-311+G(2d,p)
 ****
 33  36  37 0
 6-311+G(2d,p)
 ****
 1  2  13  14  15  16  17  18  19  20  21  23  24  26 0
 3-21G
 ****
 27  28  34  35  38  39  40  41  42  43  44  45  46  47  48 0
 3-21G
 ****


