%nproc=1
%NoSave
%Mem=1900MB
#P OB98/GEN NMR

erre ene a

0 1
  C      111.538     -83.193     251.607
  O      110.729     -82.508     250.652
  P      109.527     -83.309     249.954
  C      107.549     -82.805     251.535
  O      108.495     -83.774     251.094
  C      106.170     -83.070     250.904
  O      105.693     -84.371     251.342
  C      105.074     -82.073     251.298
  O      104.913     -80.897     250.507
  C      103.816     -82.911     251.091
  O      103.434     -82.881     249.703
  C      104.256     -84.324     251.470
  N      100.454     -86.177     254.356
  C      100.544     -85.923     253.031
  N      101.593     -85.431     252.342
  C      102.635     -85.203     253.155
  C      102.692     -85.416     254.525
  C      101.535     -85.923     255.135
  N      101.439     -86.170     256.483
  N      103.930     -85.057     255.023
  C      104.599     -84.621     253.971
  N      103.867     -84.700     252.820
  O      109.925     -84.366     248.977
  O      108.712     -82.137     249.219
  H      103.219     -81.952     249.492
  H      108.379     -82.471     248.364
  H       99.654     -86.146     252.447
  H      105.611     -84.235     254.003
  H      103.844     -85.082     250.797
  H      102.962     -82.531     251.657
  H      105.165     -81.795     252.356
  H      106.274     -83.098     249.810
  H      107.894     -81.806     251.258
  H      100.557     -86.494     256.848
  H      102.213     -85.935     257.089
  H      107.522     -82.844     252.625
  P      105.420     -79.466     251.024
  C      107.759     -79.261     249.870
  O      107.021     -79.552     251.035
  O      104.815     -79.008     252.308
  O      105.119     -78.518     249.772
  H      105.676     -78.693     248.993
  H      108.816     -79.165     250.136
  H      107.423     -78.323     249.418
  H      107.652     -80.077     249.149
  H      112.290     -82.529     251.979
  H      112.005     -84.035     251.140
  H      110.926     -83.529     252.418

 3  4  5  6  7  8  9  10  11  12  22  25  29  30  31  32 0
 6-311+G(2d,p)
 ****
 33  36  37 0
 6-311+G(2d,p)
 ****
 1  2  13  14  15  16  17  18  19  20  21  23  24  26 0
 3-21G
 ****
 27  28  34  35  38  39  40  41  42  43  44  45  46  47  48 0
 3-21G
 ****


