%nproc=1
%NoSave
%Mem=1900MB
#P OB98/GEN NMR

erre ene a

0 1
  C      -87.076    -524.802    -166.317
  O      -88.398    -525.134    -165.882
  P      -88.900    -526.640    -165.688
  C      -89.608    -527.401    -168.045
  O      -88.618    -527.482    -167.023
  C      -89.212    -528.218    -169.278
  O      -88.065    -527.633    -169.934
  C      -88.810    -529.663    -168.992
  O      -89.953    -530.472    -168.738
  C      -88.052    -530.025    -170.259
  O      -88.955    -530.396    -171.315
  C      -87.338    -528.691    -170.592
  N      -85.932    -528.695    -170.213
  C      -85.054    -529.376    -171.065
  O      -85.486    -529.971    -172.048
  N      -83.713    -529.374    -170.763
  C      -83.296    -528.818    -169.671
  N      -81.956    -528.841    -169.428
  C      -84.200    -528.164    -168.688
  C      -85.488    -528.148    -169.029
  O      -90.302    -526.759    -165.188
  O      -87.877    -527.281    -164.626
  H      -89.471    -529.589    -171.529
  H      -88.345    -527.964    -164.092
  H      -83.817    -527.739    -167.778
  H      -86.228    -527.687    -168.369
  H      -87.413    -528.476    -171.668
  H      -87.357    -530.864    -170.121
  H      -88.128    -529.694    -168.133
  H      -90.050    -528.186    -169.987
  H      -81.364    -529.283    -170.114
  H      -89.719    -526.349    -168.336
  H      -81.528    -528.429    -168.602
  H      -90.562    -527.765    -167.640
  P      -90.206    -531.045    -167.261
  C      -89.946    -533.598    -167.096
  O      -89.277    -532.346    -167.081
  O      -91.642    -531.219    -166.881
  O      -89.485    -529.980    -166.305
  H      -89.969    -529.934    -165.460
  H      -89.221    -534.368    -167.380
  H      -90.764    -533.597    -167.832
  H      -90.346    -533.802    -166.108
  H      -86.975    -523.738    -166.372
  H      -86.901    -525.227    -167.283
  H      -86.363    -525.192    -165.621

 3  4  5  6  7  8  9  10  11  12  13  23  27  28  29  30  32 0
 6-311+G(2d,p)
 ****
 34  35 0
 6-311+G(2d,p)
 ****
 1  2  14  15  16  17  18  19  20  21  22  24  25  26 0
 3-21G
 ****
 31  33  36  37  38  39  40  41  42  43  44  45  46 0
 3-21G
 ****


