%nproc=1
%NoSave
%Mem=1900MB
#P OB98/GEN NMR

erre ene a

0 1
  C     -892.207     435.576    -183.609
  O     -891.985     435.131    -182.286
  H     -892.343     434.708    -184.253
  H     -891.341     436.142    -183.957
  H     -893.109     436.197    -183.662
  P     -891.986     436.231    -181.125
  C     -889.475     435.800    -180.605
  O     -890.808     435.837    -180.110
  C     -888.482     436.021    -179.460
  O     -888.602     437.402    -179.016
  C     -888.733     435.121    -178.238
  O     -887.466     434.769    -177.674
  C     -889.470     436.039    -177.281
  O     -889.371     435.656    -175.915
  C     -888.788     437.382    -177.585
  N     -889.580     438.528    -177.142
  C     -889.581     438.821    -175.782
  O     -888.887     438.241    -174.943
  N     -890.413     439.840    -175.398
  C     -891.247     440.547    -176.210
  O     -891.988     441.430    -175.798
  C     -891.216     440.185    -177.641
  C     -890.397     439.204    -178.027
  O     -893.317     435.889    -180.305
  O     -891.951     437.654    -181.596
  H     -894.083     436.377    -180.671
  H     -888.420     435.597    -175.689
  H     -890.422     440.060    -174.411
  H     -891.870     440.724    -178.308
  H     -890.371     438.900    -179.066
  H     -887.802     437.415    -177.117
  H     -890.538     436.079    -177.544
  H     -889.309     434.215    -178.464
  H     -887.467     435.887    -179.847
  H     -889.346     436.596    -181.350
  H     -889.297     434.830    -181.084
  P     -886.726     433.477    -178.263
  C     -888.250     431.665    -177.135
  O     -886.974     432.310    -177.204
  O     -885.193     433.880    -178.060
  O     -887.118     433.169    -179.672
  H     -885.039     434.396    -177.256
  H     -888.230     430.915    -176.373
  H     -888.471     431.210    -178.078
  H     -889.003     432.389    -176.903

 6  7  8  9  10  11  12  13  14  15  16  27  31  32  33  34  35 0
 6-311+G(2d,p)
 ****
 36  37 0
 6-311+G(2d,p)
 ****
 1  2  3  4  5  17  18  19  20  21  22  23  24  25 0
 3-21G
 ****
 26  28  29  30  38  39  40  41  42  43  44  45 0
 3-21G
 ****


