%nproc=1
%NoSave
%Mem=1900MB
#P OB98/GEN NMR

erre ene a

0 1
  C     -449.214     -14.127     227.128
  O     -449.532     -15.034     226.097
  H     -449.900     -14.285     227.968
  H     -449.345     -13.103     226.758
  H     -448.188     -14.263     227.478
  P     -448.434     -15.262     224.948
  C     -448.106     -17.726     225.708
  O     -448.414     -16.839     224.638
  C     -448.943     -19.005     225.590
  O     -450.323     -18.691     225.968
  C     -448.974     -19.620     224.174
  O     -448.988     -21.043     224.293
  C     -450.326     -19.173     223.653
  O     -450.811     -20.019     222.614
  C     -451.165     -19.223     224.931
  N     -455.912     -18.985     226.559
  C     -454.852     -19.733     227.015
  N     -455.087     -20.607     228.018
  N     -453.638     -19.640     226.513
  C     -453.529     -18.719     225.532
  C     -454.507     -17.923     224.994
  C     -455.848     -18.031     225.537
  O     -456.831     -17.418     225.178
  N     -453.998     -17.158     223.959
  C     -452.733     -17.515     223.859
  N     -452.395     -18.455     224.791
  O     -447.053     -15.014     225.736
  O     -448.562     -14.376     223.754
  H     -451.588     -19.594     222.201
  H     -446.768     -14.089     225.615
  H     -456.832     -19.096     226.960
  H     -452.028     -17.136     223.142
  H     -451.443     -20.239     225.210
  H     -450.269     -18.149     223.258
  H     -455.984     -20.712     228.473
  H     -448.148     -19.311     223.538
  H     -454.309     -21.136     228.383
  H     -448.567     -19.741     226.324
  H     -448.330     -17.232     226.657
  H     -447.041     -17.958     225.678
  P     -447.774     -21.870     223.651
  C     -447.198     -23.254     225.777
  O     -447.625     -23.266     224.425
  O     -446.486     -21.054     224.140
  O     -447.830     -21.970     222.159
  H     -445.794     -21.073     223.438
  H     -447.150     -24.258     226.145
  H     -447.892     -22.691     226.365
  H     -446.229     -22.804     225.841

 6  7  8  9  10  11  12  13  14  15  26  29  33  34 0
 6-311+G(2d,p)
 ****
 36  38  39  40  41 0
 6-311+G(2d,p)
 ****
 1  2  3  4  5  16  17  18  19  20  21  22  23  24  25 0
 3-21G
 ****
 27  28  30  31  32  35  37  42  43  44  45  46  47 0
 3-21G
 ****
 48  49 0
 3-21G
 ****


