%nproc=1
%NoSave
%Mem=1900MB
#P OB98/GEN NMR

erre ene a

0 1
  C      240.416    -855.958    1023.808
  O      240.081    -855.837    1022.440
  P      238.995    -854.723    1021.992
  C      240.595    -853.076    1020.849
  O      239.526    -854.010    1020.665
  C      241.432    -852.987    1019.565
  O      242.088    -854.247    1019.277
  C      240.636    -852.627    1018.327
  O      240.247    -851.283    1018.307
  C      241.634    -853.036    1017.215
  O      242.605    -851.997    1017.044
  C      242.310    -854.279    1017.863
  N      241.804    -855.506    1017.247
  C      242.501    -855.984    1016.133
  O      243.447    -855.334    1015.640
  N      242.131    -857.197    1015.596
  C      241.093    -857.818    1016.048
  N      240.767    -859.033    1015.506
  C      240.217    -857.264    1017.121
  C      240.656    -856.143    1017.680
  O      238.540    -853.794    1023.072
  O      237.766    -855.618    1021.445
  H      236.947    -855.309    1021.857
  H      243.017    -852.134    1016.152
  H      239.325    -857.792    1017.425
  H      240.109    -855.662    1018.492
  H      243.390    -854.214    1017.704
  H      241.150    -853.193    1016.255
  H      239.754    -853.280    1018.251
  H      242.227    -852.230    1019.746
  H      241.400    -859.378    1014.778
  H      241.229    -853.415    1021.662
  H      240.196    -859.699    1015.999
  H      240.183    -852.101    1021.090
  P      239.169    -850.860    1017.157
  C      237.499    -850.704    1019.135
  O      237.952    -850.126    1017.891
  O      238.562    -852.257    1016.679
  O      239.774    -850.113    1016.023
  H      238.415    -852.230    1015.715
  H      236.918    -849.923    1019.661
  H      238.336    -851.010    1019.762
  H      236.838    -851.546    1018.932
  H      241.142    -856.735    1023.930
  H      239.538    -856.199    1024.370
  H      240.822    -855.032    1024.159

 3  4  5  6  7  8  9  10  11  12  13  24  27  28  29  30  32 0
 6-311+G(2d,p)
 ****
 34  35 0
 6-311+G(2d,p)
 ****
 1  2  14  15  16  17  18  19  20  21  22  23  25  26 0
 3-21G
 ****
 31  33  36  37  38  39  40  41  42  43  44  45  46 0
 3-21G
 ****


