%nproc=1
%NoSave
%Mem=1900MB
#P OB98/GEN NMR

erre ene a

0 1
  C     -404.909     172.899    -236.608
  O     -403.517     173.145    -236.683
  H     -405.199     172.832    -235.555
  H     -405.166     171.956    -237.098
  H     -405.466     173.718    -237.072
  P     -402.823     173.133    -238.127
  C     -402.318     171.307    -239.892
  O     -402.804     171.599    -238.583
  C     -402.823     169.938    -240.340
  O     -404.254     169.970    -240.524
  C     -402.245     169.500    -241.684
  O     -400.908     169.063    -241.534
  C     -403.246     168.436    -242.089
  O     -402.986     167.196    -241.426
  C     -404.574     169.057    -241.601
  N     -405.303     169.744    -242.667
  C     -406.685     169.844    -242.500
  O     -407.228     169.375    -241.496
  N     -407.425     170.456    -243.485
  C     -406.831     170.934    -244.535
  N     -407.616     171.524    -245.474
  C     -405.371     170.863    -244.743
  C     -404.677     170.256    -243.782
  O     -401.503     173.828    -238.249
  O     -403.934     173.785    -239.084
  H     -402.979     167.394    -240.470
  H     -403.822     174.752    -239.125
  H     -404.918     171.282    -245.632
  H     -403.599     170.163    -243.856
  H     -405.230     168.288    -241.181
  H     -403.216     168.255    -243.163
  H     -402.304     170.322    -242.406
  H     -402.592     169.207    -239.556
  H     -408.616     171.544    -245.290
  H     -401.226     171.309    -239.834
  H     -407.260     172.009    -246.284
  H     -402.634     172.081    -240.603
  P     -400.004     168.752    -242.825
  C     -400.204     166.933    -244.646
  O     -400.410     167.259    -243.280
  O     -398.545     168.996    -242.656
  O     -400.674     169.656    -243.966
  H     -400.456     170.614    -243.843
  H     -400.510     165.923    -244.822
  H     -399.166     167.039    -244.885
  H     -400.781     167.592    -245.261

 6  7  8  9  10  11  12  13  14  15  16  26  30  31  32  33  35 0
 6-311+G(2d,p)
 ****
 37  38 0
 6-311+G(2d,p)
 ****
 1  2  3  4  5  17  18  19  20  21  22  23  24  25 0
 3-21G
 ****
 27  28  29  34  36  39  40  41  42  43  44  45  46 0
 3-21G
 ****


