%nproc=1
%NoSave
%Mem=1900MB
#P OB98/GEN NMR

erre ene a

0 1
  C     -455.121     415.246    -309.744
  O     -454.572     414.023    -309.289
  H     -455.479     415.110    -310.768
  H     -454.361     416.031    -309.735
  H     -455.966     415.533    -309.112
  P     -453.954     414.021    -307.808
  C     -451.685     414.803    -308.780
  O     -452.748     415.076    -307.878
  C     -450.356     415.292    -308.206
  O     -450.294     416.727    -308.252
  C     -450.116     414.901    -306.756
  O     -449.596     413.582    -306.676
  C     -449.076     415.932    -306.346
  O     -447.775     415.512    -306.800
  C     -449.521     417.186    -307.116
  N     -449.558     420.559    -303.248
  C     -448.638     419.650    -303.633
  N     -448.716     418.750    -304.632
  C     -449.893     418.855    -305.280
  C     -450.925     419.735    -304.997
  C     -450.725     420.624    -303.930
  N     -451.665     421.549    -303.538
  N     -451.979     419.548    -305.868
  C     -451.560     418.617    -306.699
  N     -450.321     418.135    -306.364
  O     -453.625     412.680    -307.248
  O     -455.078     414.835    -307.008
  H     -447.837     415.397    -307.766
  H     -455.402     415.583    -307.539
  H     -447.718     419.640    -303.056
  H     -452.110     418.267    -307.567
  H     -448.661     417.746    -307.509
  H     -449.010     416.056    -305.265
  H     -451.015     415.031    -306.143
  H     -449.551     414.910    -308.850
  H     -451.874     415.290    -309.745
  H     -451.519     422.009    -302.651
  H     -452.579     421.508    -303.966
  H     -451.655     413.719    -308.940
  P     -449.607     412.771    -305.289
  C     -447.286     413.547    -304.494
  O     -448.694     413.642    -304.298
  O     -449.240     411.330    -305.414
  O     -451.079     412.994    -304.713
  H     -451.264     412.335    -304.015
  H     -446.784     414.167    -303.781
  H     -447.041     413.872    -305.484
  H     -446.976     412.531    -304.365

 6  7  8  9  10  11  12  13  14  15  25  28  32  33  34  35 0
 6-311+G(2d,p)
 ****
 36  39  40 0
 6-311+G(2d,p)
 ****
 1  2  3  4  5  16  17  18  19  20  21  22  23  24 0
 3-21G
 ****
 26  27  29  30  31  37  38  41  42  43  44  45  46  47 0
 3-21G
 ****
 48 0
 3-21G
 ****


