%nproc=1
%NoSave
%Mem=1900MB
#P OB98/GEN NMR

erre ene a

0 1
  C      382.584     -99.162     860.182
  O      383.438    -100.197     860.635
  H      381.607     -99.593     859.946
  H      382.989     -98.705     859.275
  H      382.450     -98.403     860.960
  P      384.908     -99.822     861.147
  C      383.773     -99.833     863.458
  O      384.734     -99.204     862.624
  C      384.162     -99.682     864.928
  O      385.312    -100.529     865.201
  C      384.524     -98.244     865.324
  O      384.037     -98.009     866.645
  C      386.046     -98.258     865.338
  O      386.592     -97.275     866.221
  C      386.344     -99.691     865.771
  N      390.950     -98.089     864.446
  C      389.872     -97.377     864.929
  N      390.024     -96.044     865.073
  N      388.728     -97.944     865.266
  C      388.712     -99.281     865.094
  C      389.720    -100.098     864.614
  C      390.968     -99.466     864.240
  O      391.957    -100.038     863.788
  N      389.321    -101.415     864.556
  C      388.075    -101.392     864.992
  N      387.658    -100.127     865.323
  O      385.718     -98.978     860.213
  O      385.596    -101.240     861.419
  H      387.563     -97.354     866.167
  H      386.181    -101.484     860.676
  H      391.796     -97.604     864.200
  H      387.430    -102.259     865.092
  H      386.316     -99.817     866.869
  H      386.421     -98.064     864.325
  H      390.878     -95.561     864.847
  H      384.132     -97.490     864.630
  H      389.248     -95.515     865.449
  H      383.334    -100.069     865.544
  H      383.728    -100.901     863.200
  H      382.789     -99.394     863.279
  P      382.798     -96.990     866.823
  C      381.768     -99.008     868.057
  O      381.517     -97.844     867.269
  O      382.587     -96.020     865.710
  O      383.189     -96.231     868.200
  H      382.807     -95.319     868.154
  H      380.840     -99.488     868.289
  H      382.260     -98.725     868.964
  H      382.391     -99.683     867.508

 6  7  8  9  10  11  12  13  14  15  26  29  33  34 0
 6-311+G(2d,p)
 ****
 36  38  39  40  41 0
 6-311+G(2d,p)
 ****
 1  2  3  4  5  16  17  18  19  20  21  22  23  24  25 0
 3-21G
 ****
 27  28  30  31  32  35  37  42  43  44  45  46  47 0
 3-21G
 ****
 48  49 0
 3-21G
 ****


