%nproc=1
%NoSave
%Mem=1900MB
#P OB98/GEN NMR

erre ene a

0 1
  C     -299.024     281.538     115.608
  O     -297.979     280.815     114.973
  P     -297.184     279.742     115.855
  C     -294.857     280.886     115.590
  O     -295.908     280.493     116.469
  C     -293.700     281.479     116.385
  O     -294.145     282.636     117.121
  C     -293.103     280.539     117.428
  O     -292.281     279.557     116.820
  C     -292.348     281.540     118.300
  O     -291.105     281.914     117.685
  C     -293.320     282.737     118.317
  N     -294.314     285.104     122.748
  C     -293.354     285.302     121.814
  N     -293.136     284.621     120.673
  C     -294.049     283.638     120.531
  C     -295.069     283.300     121.406
  C     -295.187     284.091     122.559
  N     -296.165     283.882     123.513
  N     -295.785     282.223     120.942
  C     -295.221     281.921     119.790
  N     -294.171     282.755     119.487
  O     -296.549     278.761     114.760
  O     -298.025     278.993     116.846
  H     -291.314     282.246     116.792
  H     -296.504     277.842     115.094
  H     -292.666     286.126     122.006
  H     -295.525     281.112     119.133
  H     -292.793     283.701     118.275
  H     -292.114     281.147     119.301
  H     -293.892     280.053     118.002
  H     -292.925     281.798     115.674
  H     -295.232     281.645     114.892
  H     -296.088     284.390     124.380
  H     -296.726     283.040     123.440
  H     -294.537     280.019     115.007
  P     -291.631     278.442     117.774
  C     -289.231     279.222     117.257
  O     -290.245     279.108     118.239
  O     -291.155     277.341     116.712
  O     -292.525     277.950     118.857
  H     -290.660     277.742     115.981
  H     -288.372     279.732     117.688
  H     -289.595     279.801     116.410
  H     -288.924     278.220     116.925
  H     -299.466     282.215     114.907
  H     -298.626     282.089     116.434
  H     -299.767     280.854     115.961

 3  4  5  6  7  8  9  10  11  12  22  25  29  30  31  32 0
 6-311+G(2d,p)
 ****
 33  36  37 0
 6-311+G(2d,p)
 ****
 1  2  13  14  15  16  17  18  19  20  21  23  24  26 0
 3-21G
 ****
 27  28  34  35  38  39  40  41  42  43  44  45  46  47  48 0
 3-21G
 ****


