%nproc=1
%NoSave
%Mem=1900MB
#P OB98/GEN NMR

erre ene a

0 1
  C       15.873    -155.244    -180.513
  O       16.131    -156.175    -179.479
  H       14.985    -154.663    -180.251
  H       15.684    -155.768    -181.457
  H       16.721    -154.564    -180.627
  P       17.368    -157.171    -179.713
  C       15.892    -159.255    -180.155
  O       16.837    -158.334    -180.683
  C       16.516    -160.641    -180.014
  O       15.656    -161.513    -179.247
  C       16.789    -161.346    -181.339
  O       18.021    -160.921    -181.896
  C       16.812    -162.803    -180.903
  O       18.085    -163.145    -180.308
  C       15.692    -162.839    -179.849
  N       12.980    -166.457    -182.095
  C       14.323    -166.416    -181.785
  N       15.066    -167.486    -182.148
  N       14.898    -165.411    -181.177
  C       14.051    -164.386    -180.923
  C       12.700    -164.304    -181.184
  C       12.067    -165.450    -181.806
  O       10.866    -165.580    -182.030
  N       12.184    -163.105    -180.759
  C       13.220    -162.452    -180.273
  N       14.381    -163.184    -180.358
  O       17.523    -157.911    -178.298
  O       18.647    -156.518    -180.122
  H       18.313    -162.474    -179.642
  H       18.472    -158.040    -178.115
  H       12.585    -167.272    -182.534
  H       13.189    -161.459    -179.848
  H       15.914    -163.551    -179.045
  H       16.675    -163.480    -181.748
  H       14.753    -168.134    -182.855
  H       15.962    -161.191    -182.044
  H       16.063    -167.418    -181.986
  H       17.447    -160.526    -179.444
  H       15.034    -159.307    -180.831
  H       15.554    -158.900    -179.175
  P       18.118    -160.755    -183.488
  C       19.804    -162.726    -183.635
  O       18.588    -162.164    -184.103
  O       19.409    -159.820    -183.668
  O       16.914    -160.144    -184.123
  H       19.124    -158.913    -183.905
  H       19.982    -163.656    -184.133
  H       19.737    -162.893    -182.580
  H       20.610    -162.052    -183.839

 6  7  8  9  10  11  12  13  14  15  26  29  33  34 0
 6-311+G(2d,p)
 ****
 36  38  39  40  41 0
 6-311+G(2d,p)
 ****
 1  2  3  4  5  16  17  18  19  20  21  22  23  24  25 0
 3-21G
 ****
 27  28  30  31  32  35  37  42  43  44  45  46  47 0
 3-21G
 ****
 48  49 0
 3-21G
 ****


