%nproc=1
%NoSave
%Mem=1900MB
#P OB98/GEN NMR

erre ene a

0 1
  C      499.168     175.523    -383.503
  O      497.862     174.909    -383.491
  P      497.441     173.994    -382.235
  C      496.606     175.817    -380.549
  O      497.593     174.859    -380.893
  C      496.016     175.496    -379.178
  O      497.071     175.281    -378.207
  C      495.155     176.604    -378.584
  O      493.864     176.650    -379.175
  C      495.128     176.214    -377.114
  O      494.121     175.208    -376.861
  C      496.541     175.623    -376.913
  N      497.431     176.542    -376.198
  C      497.647     176.286    -374.850
  O      497.078     175.371    -374.239
  N      498.495     177.137    -374.208
  C      499.104     178.238    -374.752
  O      499.842     178.974    -374.108
  C      498.771     178.511    -376.156
  C      497.960     177.665    -376.799
  O      498.681     172.982    -382.131
  O      496.156     173.240    -382.383
  H      494.261     174.908    -375.942
  H      498.382     172.141    -381.736
  H      498.694     176.952    -373.225
  H      499.212     179.389    -376.627
  H      497.715     177.856    -377.838
  H      496.486     174.684    -376.343
  H      494.900     177.053    -376.457
  H      495.673     177.568    -378.690
  H      495.439     174.562    -379.256
  H      495.806     175.786    -381.300
  H      497.057     176.820    -380.557
  P      493.668     177.680    -380.395
  C      493.034     175.783    -382.078
  O      493.917     176.825    -381.711
  O      494.976     178.591    -380.225
  O      492.375     178.430    -380.317
  H      495.743     178.080    -379.898
  H      492.002     175.997    -381.761
  H      493.371     174.850    -381.601
  H      493.051     175.640    -383.163
  H      499.286     176.092    -384.401
  H      499.920     174.763    -383.461
  H      499.266     176.169    -382.656

 3  4  5  6  7  8  9  10  11  12  13  23  28  29  30  31  32 0
 6-311+G(2d,p)
 ****
 33  34 0
 6-311+G(2d,p)
 ****
 1  2  14  15  16  17  18  19  20  21  22  24  25  26 0
 3-21G
 ****
 27  35  36  37  38  39  40  41  42  43  44  45 0
 3-21G
 ****


