%nproc=1
%NoSave
%Mem=1900MB
#P OB98/GEN NMR

erre ene a

0 1
  C     -599.051     647.614     475.598
  O     -599.889     647.281     476.684
  H     -599.600     647.461     474.664
  H     -598.176     646.955     475.598
  H     -598.731     648.657     475.651
  P     -599.451     647.794     478.135
  C     -601.395     649.513     478.170
  O     -600.765     648.420     478.819
  C     -602.783     649.760     478.772
  O     -603.718     648.802     478.184
  C     -602.847     649.602     480.300
  O     -603.756     650.571     480.829
  C     -603.467     648.225     480.466
  O     -604.101     648.069     481.730
  C     -604.430     648.202     479.284
  N     -607.229     644.414     481.020
  C     -607.138     645.728     481.438
  N     -607.856     646.079     482.522
  N     -606.393     646.624     480.838
  C     -605.745     646.142     479.751
  C     -605.745     644.871     479.240
  C     -606.557     643.877     479.917
  O     -606.663     642.698     479.611
  N     -604.902     644.776     478.157
  C     -604.379     645.980     478.037
  N     -604.857     646.849     478.975
  O     -598.553     649.083     477.796
  O     -598.707     646.803     478.969
  H     -604.832     648.717     481.788
  H     -597.612     648.828     477.766
  H     -607.799     643.758     481.519
  H     -603.639     646.273     477.298
  H     -605.335     648.792     479.468
  H     -602.699     647.448     480.364
  H     -608.470     645.450     483.021
  H     -601.876     649.697     480.796
  H     -607.830     647.043     482.820
  H     -603.121     650.762     478.472
  H     -601.502     649.291     477.107
  H     -600.771     650.406     478.278
  P     -603.439     651.204     482.266
  C     -603.591     653.690     481.497
  O     -604.100     652.665     482.345
  O     -601.867     651.517     482.184
  O     -603.748     650.296     483.411
  H     -601.454     651.386     483.053
  H     -604.133     654.597     481.668
  H     -603.703     653.395     480.474
  H     -602.555     653.848     481.711

 6  7  8  9  10  11  12  13  14  15  26  29  33  34 0
 6-311+G(2d,p)
 ****
 36  38  39  40  41 0
 6-311+G(2d,p)
 ****
 1  2  3  4  5  16  17  18  19  20  21  22  23  24  25 0
 3-21G
 ****
 27  28  30  31  32  35  37  42  43  44  45  46  47 0
 3-21G
 ****
 48  49 0
 3-21G
 ****


