%nproc=1
%NoSave
%Mem=1900MB
#P OB98/GEN NMR

erre ene a

0 1
  C      373.702     744.539      51.119
  O      372.624     745.019      51.893
  H      374.299     743.859      51.734
  H      374.332     745.378      50.809
  H      373.352     743.996      50.237
  P      371.360     745.653      51.142
  C      370.128     743.422      50.732
  O      370.770     744.540      50.140
  C      368.649     743.346      50.346
  O      368.530     743.181      48.917
  C      367.931     742.159      50.996
  O      367.415     742.422      52.288
  C      366.807     741.893      49.999
  O      365.641     742.680      50.298
  C      367.409     742.318      48.656
  N      366.210     737.736      46.728
  C      365.545     738.473      47.687
  N      364.448     737.894      48.222
  N      365.940     739.651      48.093
  C      367.102     740.059      47.537
  C      367.866     739.407      46.582
  C      367.383     738.135      46.092
  O      367.924     737.451      45.229
  N      369.007     740.104      46.292
  C      368.981     741.125      47.123
  N      367.811     741.187      47.841
  O      372.016     746.711      50.132
  O      370.352     746.316      52.027
  H      365.199     742.282      51.079
  H      371.402     747.459      50.003
  H      365.849     736.849      46.432
  H      369.755     741.881      47.214
  H      366.695     742.901      48.060
  H      366.491     740.845      50.036
  H      364.151     736.951      48.010
  H      368.582     741.281      51.022
  H      364.046     738.307      49.068
  H      368.163     744.296      50.601
  H      370.229     743.537      51.814
  H      370.644     742.492      50.452
  P      366.882     741.239      53.215
  C      369.127     740.693      54.471
  O      368.113     740.286      53.575
  O      366.015     740.350      52.201
  O      366.091     741.659      54.417
  H      365.066     740.555      52.298
  H      369.850     739.911      54.571
  H      368.695     740.903      55.427
  H      369.604     741.574      54.094

 6  7  8  9  10  11  12  13  14  15  26  29  33  34 0
 6-311+G(2d,p)
 ****
 36  38  39  40  41 0
 6-311+G(2d,p)
 ****
 1  2  3  4  5  16  17  18  19  20  21  22  23  24  25 0
 3-21G
 ****
 27  28  30  31  32  35  37  42  43  44  45  46  47 0
 3-21G
 ****
 48  49 0
 3-21G
 ****


