%nproc=1
%NoSave
%Mem=1900MB
#P OB98/GEN NMR

erre ene a

0 1
  C      113.592     104.969     357.579
  O      113.291     105.536     358.838
  H      112.670     104.726     357.045
  H      114.158     105.696     356.991
  H      114.198     104.069     357.705
  P      112.424     104.638     359.845
  C      110.715     106.295     360.876
  O      111.946     105.603     361.040
  C      110.657     107.488     361.827
  O      110.953     107.017     363.167
  C      111.638     108.623     361.491
  O      110.926     109.848     361.290
  C      112.495     108.765     362.741
  O      112.775     110.122     363.080
  C      111.666     108.075     363.819
  N      114.210     109.320     368.054
  C      113.171     109.916     367.428
  N      112.470     109.478     366.364
  C      112.921     108.276     365.962
  C      113.951     107.537     366.514
  C      114.626     108.115     367.603
  N      115.720     107.534     368.204
  N      114.130     106.353     365.820
  C      113.250     106.400     364.841
  N      112.510     107.553     364.874
  O      113.523     103.700     360.539
  O      111.339     103.839     359.208
  H      113.436     110.440     362.435
  H      113.215     102.775     360.527
  H      112.866     110.879     367.832
  H      113.137     105.658     364.058
  H      110.931     108.754     364.271
  H      113.447     108.245     362.578
  H      112.254     108.405     360.615
  H      109.628     107.868     361.841
  H      109.883     105.619     361.102
  H      116.212     108.071     368.898
  H      116.102     106.689     367.801
  H      110.626     106.622     359.835
  P      111.021     110.505     359.827
  C      111.535     113.042     360.086
  O      110.545     112.032     359.951
  O      109.812     109.804     359.041
  O      112.332     110.285     359.147
  H      110.006     109.782     358.084
  H      111.061     113.999     360.157
  H      112.180     113.026     359.232
  H      112.109     112.862     360.971

 6  7  8  9  10  11  12  13  14  15  25  28  32  33  34  35 0
 6-311+G(2d,p)
 ****
 36  39  40 0
 6-311+G(2d,p)
 ****
 1  2  3  4  5  16  17  18  19  20  21  22  23  24 0
 3-21G
 ****
 26  27  29  30  31  37  38  41  42  43  44  45  46  47  48 0
 3-21G
 ****


