%nproc=1
%NoSave
%Mem=1900MB
#P OB98/GEN NMR

erre ene a

0 1
  C     -103.016     -96.552     132.622
  O     -103.984     -95.635     133.103
  H     -102.267     -95.999     132.043
  H     -103.476     -97.297     131.969
  H     -102.517     -97.048     133.459
  P     -105.272     -96.221     133.853
  C     -105.310     -94.012     135.201
  O     -106.053     -94.943     134.424
  C     -106.254     -93.159     136.044
  O     -107.184     -93.999     136.754
  C     -105.534     -92.342     137.106
  O     -104.890     -91.221     136.536
  C     -106.681     -92.027     138.051
  O     -107.474     -90.940     137.560
  C     -107.479     -93.353     138.016
  N     -107.172     -94.227     139.140
  C     -107.362     -93.681     140.415
  O     -107.771     -92.528     140.543
  N     -107.056     -94.455     141.509
  C     -106.622     -95.666     141.348
  N     -106.342     -96.378     142.472
  C     -106.421     -96.284     140.023
  C     -106.709     -95.515     138.974
  O     -105.035     -97.302     134.863
  O     -106.213     -96.713     132.655
  H     -108.153     -90.772     138.246
  H     -106.018     -97.642     132.427
  H     -106.062     -97.299     139.939
  H     -106.594     -95.894     137.963
  H     -108.559     -93.151     138.022
  H     -106.321     -91.759     139.042
  H     -104.815     -92.970     137.646
  H     -106.829     -92.514     135.371
  H     -106.484     -95.909     143.362
  H     -104.754     -93.381     134.504
  H     -106.083     -97.352     142.473
  H     -104.592     -94.532     135.847
  P     -103.308     -91.026     136.688
  C     -103.358     -90.226     134.234
  O     -102.903     -89.957     135.559
  O     -102.505     -92.284     136.694
  O     -103.176     -90.178     138.041
  H     -103.341     -90.743     138.836
  H     -103.027     -89.448     133.578
  H     -104.427     -90.268     134.226
  H     -102.961     -91.163     133.904

 6  7  8  9  10  11  12  13  14  15  16  26  30  31  32  33  35 0
 6-311+G(2d,p)
 ****
 37  38 0
 6-311+G(2d,p)
 ****
 1  2  3  4  5  17  18  19  20  21  22  23  24  25 0
 3-21G
 ****
 27  28  29  34  36  39  40  41  42  43  44  45  46 0
 3-21G
 ****


