%nproc=1
%NoSave
%Mem=1900MB
#P OB98/GEN NMR

erre ene a

0 1
  C      112.217     -82.564    -644.875
  O      110.985     -82.687    -645.567
  P      110.780     -83.995    -646.477
  C      109.618     -85.209    -644.488
  O      110.641     -85.237    -645.474
  C      109.437     -86.601    -643.875
  O      108.701     -87.447    -644.780
  C      110.736     -87.342    -643.588
  O      111.372     -86.830    -642.426
  C      110.221     -88.766    -643.454
  O      109.634     -88.962    -642.159
  C      109.126     -88.815    -644.541
  N      108.067     -92.110    -648.317
  C      107.398     -91.790    -647.188
  N      107.754     -90.919    -646.222
  C      108.937     -90.344    -646.510
  C      109.736     -90.593    -647.611
  C      109.262     -91.518    -648.547
  N      109.948     -91.851    -649.696
  N      110.891     -89.829    -647.552
  C      110.776     -89.131    -646.441
  N      109.604     -89.393    -645.788
  O      112.219     -84.210    -647.136
  O      109.696     -83.876    -647.508
  H      110.232     -88.557    -641.504
  H      112.140     -84.574    -648.040
  H      106.451     -92.299    -647.038
  H      111.508     -88.422    -646.081
  H      108.248     -89.387    -644.229
  H      111.006     -89.524    -643.576
  H      111.415     -87.261    -644.447
  H      108.848     -86.489    -642.953
  H      108.673     -84.902    -644.946
  H      109.609     -92.628    -650.235
  H      110.901     -91.514    -649.793
  H      109.881     -84.477    -643.721
  P      112.867     -87.336    -642.125
  C      113.533     -86.386    -644.417
  O      113.505     -87.536    -643.585
  O      112.609     -88.840    -641.651
  O      113.640     -86.470    -641.182
  H      112.017     -89.316    -642.255
  H      114.040     -86.639    -645.353
  H      114.083     -85.576    -643.927
  H      112.516     -86.062    -644.642
  H      112.220     -81.654    -644.312
  H      113.022     -82.550    -645.580
  H      112.338     -83.395    -644.212

 3  4  5  6  7  8  9  10  11  12  22  25  29  30  31  32 0
 6-311+G(2d,p)
 ****
 33  36  37 0
 6-311+G(2d,p)
 ****
 1  2  13  14  15  16  17  18  19  20  21  23  24  26 0
 3-21G
 ****
 27  28  34  35  38  39  40  41  42  43  44  45  46  47  48 0
 3-21G
 ****


