%nproc=1
%NoSave
%Mem=1900MB
#P OB98/GEN NMR

erre ene a

0 1
  C     -417.088     364.193    -398.418
  O     -416.058     363.264    -398.101
  P     -414.735     363.277    -399.013
  C     -413.013     364.094    -397.233
  O     -413.793     364.423    -398.381
  C     -411.582     363.742    -397.644
  O     -410.992     364.868    -398.325
  C     -410.655     363.427    -396.477
  O     -410.809     362.093    -396.027
  C     -409.296     363.637    -397.135
  O     -408.927     362.453    -397.872
  C     -409.558     364.810    -398.092
  N     -406.857     368.980    -399.101
  C     -407.100     367.872    -399.896
  N     -406.577     367.887    -401.140
  N     -407.803     366.836    -399.495
  C     -408.291     366.972    -398.238
  C     -408.115     368.017    -397.369
  C     -407.295     369.129    -397.791
  O     -406.987     370.113    -397.121
  N     -408.790     367.799    -396.182
  C     -409.405     366.646    -396.367
  N     -409.111     366.098    -397.589
  O     -415.246     363.943    -400.382
  O     -414.098     361.962    -399.239
  H     -409.509     362.416    -398.649
  H     -414.673     363.660    -401.117
  H     -406.323     369.748    -399.474
  H     -410.065     366.190    -395.636
  H     -409.086     364.646    -399.077
  H     -408.499     363.820    -396.408
  H     -406.140     368.710    -401.539
  H     -410.787     364.163    -395.668
  H     -406.785     367.099    -401.746
  H     -411.626     362.907    -398.353
  H     -413.462     363.222    -396.736
  H     -413.016     364.936    -396.544
  P     -410.499     361.824    -394.464
  C     -412.669     360.483    -393.934
  O     -411.941     361.694    -393.770
  O     -409.956     363.242    -393.955
  O     -409.536     360.722    -394.211
  H     -409.372     363.122    -393.173
  H     -412.007     359.610    -393.940
  H     -413.237     360.525    -394.877
  H     -413.368     360.385    -393.097
  H     -417.901     364.071    -397.733
  H     -417.432     364.017    -399.416
  H     -416.705     365.189    -398.344

 3  4  5  6  7  8  9  10  11  12  23  26  30  31  33  0
 6-311+G(2d,p)
 ****
 35  36  37  38 0
 6-311+G(2d,p)
 ****
 1  2  13  14  15  16  17  18  19  20  21  22  24  25  27  28  29 0
 3-21G
 ****
 32  34  39  40  41  42  43  44  45  46  47  48  49 0
 3-21G
 ****


