%nproc=1
%NoSave
%Mem=1900MB
#P OB98/GEN NMR

erre ene a

0 1
  C     -211.096    -676.189     135.675
  O     -210.475    -674.917     135.697
  H     -211.432    -676.396     134.656
  H     -211.970    -676.195     136.335
  H     -210.390    -676.966     135.977
  P     -209.897    -674.372     137.088
  C     -212.176    -673.652     138.089
  O     -211.106    -674.583     138.130
  C     -212.792    -673.499     139.483
  O     -213.505    -674.695     139.874
  C     -211.784    -673.263     140.605
  O     -211.232    -671.962     140.612
  C     -212.682    -673.520     141.808
  O     -213.539    -672.387     142.019
  C     -213.475    -674.754     141.328
  N     -212.883    -676.019     141.779
  C     -213.451    -676.602     142.915
  O     -214.387    -676.067     143.498
  N     -212.913    -677.779     143.391
  C     -211.892    -678.307     142.792
  N     -211.397    -679.470     143.309
  C     -211.251    -677.711     141.602
  C     -211.792    -676.584     141.148
  O     -209.306    -672.996     137.060
  O     -208.859    -675.499     137.564
  H     -214.298    -672.699     142.539
  H     -208.463    -675.203     138.417
  H     -210.376    -678.176     141.164
  H     -211.373    -676.084     140.288
  H     -214.516    -674.706     141.676
  H     -212.116    -673.675     142.733
  H     -210.999    -674.028     140.589
  H     -213.530    -672.685     139.426
  H     -211.851    -679.852     144.123
  H     -212.916    -674.013     137.369
  H     -210.551    -679.908     142.956
  H     -211.809    -672.675     137.764
  P     -209.809    -671.783     141.358
  C     -210.894    -670.826     143.539
  O     -210.118    -671.852     142.929
  O     -209.459    -670.243     141.091
  O     -208.727    -672.714     140.899
  H     -208.830    -670.160     140.347
  H     -211.000    -671.032     144.584
  H     -211.861    -670.791     143.083
  H     -210.404    -669.884     143.409

 6  7  8  9  10  11  12  13  14  15  16  26  30  31  32  33  35 0
 6-311+G(2d,p)
 ****
 37  38 0
 6-311+G(2d,p)
 ****
 1  2  3  4  5  17  18  19  20  21  22  23  24  25 0
 3-21G
 ****
 27  28  29  34  36  39  40  41  42  43  44  45  46 0
 3-21G
 ****


