%nproc=1
%NoSave
%Mem=1900MB
#P OB98/GEN NMR

erre ene a

0 1
  C      136.100     107.305    -285.201
  O      135.972     108.417    -284.335
  P      137.282     109.324    -284.117
  C      137.564     111.856    -283.537
  O      136.787     110.847    -284.162
  C      137.470     113.151    -284.345
  O      138.236     113.040    -285.562
  C      136.055     113.525    -284.766
  O      135.375     114.169    -283.703
  C      136.324     114.430    -285.964
  O      136.660     115.762    -285.535
  C      137.529     113.741    -286.620
  N      137.264     113.106    -291.627
  C      137.510     114.248    -290.890
  N      137.767     115.373    -291.590
  N      137.509     114.283    -289.583
  C      137.224     113.088    -289.016
  C      136.948     111.892    -289.639
  C      137.006     111.857    -291.083
  O      136.893     110.853    -291.780
  N      136.684     110.900    -288.730
  C      136.829     111.490    -287.560
  N      137.179     112.812    -287.678
  O      138.086     109.133    -285.483
  O      138.100     108.979    -282.913
  H      135.946     116.110    -284.970
  H      138.793     108.469    -285.380
  H      137.297     113.136    -292.633
  H      136.717     111.000    -286.606
  H      138.230     114.463    -287.054
  H      135.449     114.524    -286.613
  H      137.761     115.427    -292.596
  H      135.506     112.634    -285.094
  H      137.944     116.221    -291.066
  H      137.915     113.954    -283.744
  H      138.607     111.532    -283.495
  H      137.198     112.009    -282.516
  P      133.775     114.061    -283.678
  C      131.944     114.099    -281.836
  O      133.308     114.286    -282.163
  O      133.505     112.505    -283.936
  O      133.081     114.907    -284.693
  H      132.700     112.396    -284.476
  H      131.876     113.769    -280.797
  H      131.472     113.350    -282.480
  H      131.418     115.050    -281.942
  H      135.165     106.789    -285.259
  H      136.850     106.642    -284.822
  H      136.382     107.643    -286.176

 3  4  5  6  7  8  9  10  11  12  23  26  30  31 0
 6-311+G(2d,p)
 ****
 33  35  36  37  38 0
 6-311+G(2d,p)
 ****
 1  2  13  14  15  16  17  18  19  20  21  22  24  25 0
 3-21G
 ****
 27  28  29  32  34  39  40  41  42  43  44  45  46  47  48  49 0
 3-21G
 ****


