%nproc=1
%NoSave
%Mem=1900MB
#P OB98/GEN NMR

erre ene a

0 1
  C       64.146     -55.419      96.935
  O       64.509     -56.601      97.622
  H       65.039     -54.834      96.707
  H       63.655     -55.696      95.998
  H       63.452     -54.824      97.536
  P       65.089     -56.425      99.108
  C       62.960     -56.243     100.586
  O       63.993     -57.077     100.085
  C       61.753     -57.083     101.008
  O       61.049     -57.521      99.815
  C       62.128     -58.333     101.811
  O       61.154     -58.534     102.837
  C       62.040     -59.452     100.786
  O       61.796     -60.717     101.389
  C       60.909     -58.954      99.891
  N       59.489     -62.950      97.049
  C       59.190     -62.591      98.316
  N       59.607     -61.504      98.999
  C       60.374     -60.721      98.218
  C       60.766     -60.956      96.912
  C       60.295     -62.141      96.321
  N       60.625     -62.533      95.043
  N       61.587     -59.938      96.462
  C       61.685     -59.107      97.481
  N       60.973     -59.539      98.565
  O       64.921     -54.849      99.354
  O       66.494     -56.877      99.314
  H       60.969     -60.654     101.912
  H       65.651     -54.372      98.915
  H       58.535     -63.270      98.856
  H       62.262     -58.191      97.490
  H       59.916     -59.184     100.301
  H       62.980     -59.515     100.227
  H       63.120     -58.265     102.261
  H       61.059     -56.445     101.569
  H       62.658     -55.539      99.804
  H       60.287     -63.425      94.720
  H       61.274     -61.973      94.508
  H       63.336     -55.680     101.448
  P       61.673     -59.180     104.212
  C       63.093     -57.170     105.025
  O       61.962     -57.995     105.257
  O       63.132     -59.722     103.838
  O       60.798     -60.278     104.724
  H       63.230     -60.647     104.131
  H       63.159     -56.430     105.795
  H       62.994     -56.688     104.075
  H       63.979     -57.770     105.030

 6  7  8  9  10  11  12  13  14  15  25  28  32  33  34  35 0
 6-311+G(2d,p)
 ****
 36  39  40 0
 6-311+G(2d,p)
 ****
 1  2  3  4  5  16  17  18  19  20  21  22  23  24 0
 3-21G
 ****
 26  27  29  30  31  37  38  41  42  43  44  45  46  47 0
 3-21G
 ****
 48 0
 3-21G
 ****


