%nproc=1
%NoSave
%Mem=1900MB
#P OB98/GEN NMR

erre ene a

0 1
  C     -469.992     544.658     414.820
  O     -470.458     543.668     413.922
  H     -468.896     544.643     414.822
  H     -470.347     544.447     415.832
  H     -470.328     545.652     414.502
  P     -472.035     543.542     413.656
  C     -472.411     541.009     413.928
  O     -472.285     542.093     413.012
  C     -472.608     539.692     413.180
  O     -471.402     539.388     412.434
  C     -472.913     538.500     414.099
  O     -473.868     537.661     413.450
  C     -471.579     537.786     414.195
  O     -471.731     536.393     414.479
  C     -470.974     538.069     412.816
  N     -467.020     534.958     412.278
  C     -468.369     534.721     412.095
  N     -468.736     533.468     411.750
  N     -469.295     535.639     412.257
  C     -468.789     536.853     412.593
  C     -467.482     537.211     412.798
  C     -466.472     536.186     412.635
  O     -465.259     536.325     412.792
  N     -467.367     538.536     413.154
  C     -468.622     538.975     413.167
  N     -469.519     537.992     412.843
  O     -472.644     544.673     412.892
  O     -472.668     543.408     415.119
  H     -471.836     536.310     415.454
  H     -473.032     544.264     415.417
  H     -466.352     534.215     412.151
  H     -468.925     539.983     413.409
  H     -471.317     537.355     412.056
  H     -470.971     538.241     414.992
  H     -468.080     532.717     411.599
  H     -473.291     538.808     415.082
  H     -469.717     533.282     411.597
  H     -473.417     539.827     412.441
  H     -473.274     541.205     414.576
  H     -471.510     540.953     414.549
  P     -475.020     536.979     414.330
  C     -474.930     534.547     413.464
  O     -475.654     535.770     413.478
  O     -476.005     537.909     414.941
  O     -474.188     536.192     415.460
  H     -474.721     536.146     416.275
  H     -475.453     533.830     412.867
  H     -474.835     534.178     414.464
  H     -473.957     534.713     413.051

 6  7  8  9  10  11  12  13  14  15  26  29  33  34 0
 6-311+G(2d,p)
 ****
 36  38  39  40  41 0
 6-311+G(2d,p)
 ****
 1  2  3  4  5  16  17  18  19  20  21  22  23  24  25 0
 3-21G
 ****
 27  28  30  31  32  35  37  42  43  44  45  46  47 0
 3-21G
 ****
 48  49 0
 3-21G
 ****


