%nproc=1
%NoSave
%Mem=1900MB
#P OB98/GEN NMR

erre ene a

0 1
  C      828.095    -838.167     373.550
  O      828.378    -837.608     374.820
  H      827.886    -837.354     372.855
  H      827.211    -838.810     373.612
  H      828.949    -838.737     373.186
  P      828.875    -838.580     375.999
  C      831.424    -838.328     375.688
  O      830.288    -839.180     375.545
  C      832.303    -838.829     376.822
  O      832.977    -840.052     376.431
  C      833.419    -837.854     377.206
  O      832.911    -836.792     377.982
  C      834.371    -838.790     377.951
  O      833.927    -839.002     379.311
  C      834.270    -840.085     377.118
  N      835.365    -840.245     376.185
  C      836.470    -840.936     376.660
  O      836.583    -841.370     377.812
  N      837.508    -841.090     375.758
  C      837.559    -840.547     374.509
  O      838.547    -840.636     373.776
  C      836.372    -839.808     374.068
  C      835.338    -839.692     374.903
  O      827.871    -839.590     376.469
  O      829.264    -837.562     377.177
  H      833.991    -838.134     379.757
  H      828.579    -837.585     377.870
  H      838.333    -841.580     376.091
  H      836.377    -839.372     373.075
  H      834.450    -839.152     374.619
  H      834.231    -840.950     377.781
  H      835.375    -838.383     378.015
  H      833.919    -837.479     376.322
  H      831.661    -839.068     377.690
  H      831.073    -837.319     375.915
  H      831.970    -838.316     374.731
  P      833.581    -835.339     377.890
  C      831.306    -834.224     377.400
  O      832.653    -834.422     376.946
  O      835.033    -835.320     377.527
  O      833.351    -834.698     379.330
  H      834.217    -834.499     379.752
  H      830.782    -833.604     376.703
  H      831.319    -833.750     378.359
  H      830.813    -835.170     377.477

 6  7  8  9  10  11  12  13  14  15  16  26  31  32  33  34  35 0
 6-311+G(2d,p)
 ****
 36  37 0
 6-311+G(2d,p)
 ****
 1  2  3  4  5  17  18  19  20  21  22  23  24  25 0
 3-21G
 ****
 27  28  29  30  38  39  40  41  42  43  44  45 0
 3-21G
 ****


