%nproc=1
%NoSave
%Mem=1900MB
#P OB98/GEN NMR

erre ene a

0 1
  C     -599.747    -179.739     191.072
  O     -598.655    -180.168     190.291
  H     -599.371    -179.026     191.817
  H     -600.197    -180.583     191.600
  H     -600.490    -179.236     190.448
  P     -598.876    -181.369     189.238
  C     -598.094    -183.235     190.815
  O     -599.211    -182.656     190.141
  C     -598.154    -184.767     190.799
  O     -598.076    -185.239     189.425
  C     -597.017    -185.435     191.574
  O     -597.555    -186.479     192.403
  C     -596.129    -186.039     190.482
  O     -595.362    -187.130     190.968
  C     -597.181    -186.359     189.415
  N     -596.585    -186.561     188.093
  C     -596.185    -187.864     187.774
  O     -596.293    -188.769     188.614
  N     -595.625    -188.114     186.554
  C     -595.435    -187.130     185.715
  N     -594.866    -187.442     184.521
  C     -595.808    -185.734     186.018
  C     -596.384    -185.522     187.212
  O     -597.764    -181.554     188.260
  O     -600.285    -181.037     188.545
  H     -594.735    -187.412     190.259
  H     -600.343    -181.522     187.681
  H     -595.628    -184.952     185.293
  H     -596.695    -184.528     187.515
  H     -597.751    -187.257     189.669
  H     -595.439    -185.270     190.119
  H     -596.453    -184.750     192.209
  H     -599.139    -185.073     191.168
  H     -594.634    -188.416     184.354
  H     -598.079    -182.868     191.848
  H     -594.667    -186.766     183.794
  H     -597.178    -182.908     190.310
  P     -598.231    -186.007     193.780
  C     -596.182    -186.913     195.096
  O     -597.066    -185.819     194.873
  O     -599.022    -187.311     194.274
  O     -599.151    -184.832     193.631
  H     -599.968    -187.228     194.059
  H     -595.465    -186.645     195.843
  H     -595.675    -187.153     194.185
  H     -596.742    -187.762     195.427

 6  7  8  9  10  11  12  13  14  15  16  26  30  31  32  33  35 0
 6-311+G(2d,p)
 ****
 37  38 0
 6-311+G(2d,p)
 ****
 1  2  3  4  5  17  18  19  20  21  22  23  24  25 0
 3-21G
 ****
 27  28  29  34  36  39  40  41  42  43  44  45  46 0
 3-21G
 ****


