%nproc=1
%NoSave
%Mem=1900MB
#P OB98/GEN NMR

erre ene a

0 1
  C     -302.197    -142.790     866.206
  O     -301.170    -143.533     866.838
  P     -300.890    -145.089     866.592
  C     -298.478    -144.757     865.571
  O     -299.308    -145.335     866.595
  C     -296.993    -144.841     865.952
  O     -296.748    -143.986     867.109
  C     -296.567    -146.278     866.331
  O     -295.304    -146.665     865.804
  C     -296.715    -146.283     867.842
  O     -295.994    -147.313     868.488
  C     -296.326    -144.851     868.220
  N     -295.560    -143.930     873.180
  C     -294.719    -144.559     872.267
  N     -293.544    -145.001     872.736
  N     -295.037    -144.726     871.007
  C     -296.288    -144.309     870.697
  C     -297.203    -143.692     871.512
  C     -296.833    -143.458     872.889
  O     -297.520    -142.901     873.726
  N     -298.359    -143.389     870.835
  C     -298.154    -143.841     869.611
  N     -296.894    -144.389     869.485
  O     -301.682    -145.730     865.496
  O     -301.349    -145.785     867.984
  H     -295.054    -147.085     868.467
  H     -301.681    -146.674     867.749
  H     -295.255    -143.805     874.132
  H     -298.865    -143.776     868.794
  H     -295.242    -144.731     868.311
  H     -297.793    -146.439     868.088
  H     -293.294    -144.992     873.716
  H     -297.260    -147.017     865.894
  H     -293.048    -145.643     872.125
  H     -296.394    -144.472     865.106
  H     -298.795    -143.688     865.502
  H     -298.689    -145.219     864.598
  P     -294.898    -148.028     865.076
  C     -293.617    -146.946     863.130
  O     -293.538    -147.782     864.264
  O     -295.978    -148.214     863.913
  O     -294.881    -149.229     865.979
  H     -296.487    -149.059     864.056
  H     -292.717    -147.073     862.533
  H     -293.702    -145.898     863.431
  H     -294.489    -147.212     862.526
  H     -302.165    -141.776     866.546
  H     -303.147    -143.218     866.448
  H     -302.055    -142.815     865.146

 3  4  5  6  7  8  9  10  11  12  23  26  30  31 0
 6-311+G(2d,p)
 ****
 33  35  36  37  38 0
 6-311+G(2d,p)
 ****
 1  2  13  14  15  16  17  18  19  20  21  22  24  25 0
 3-21G
 ****
 27  28  29  32  34  39  40  41  42  43  44  45  46  47  48  49 0
 3-21G
 ****


