%nproc=1
%NoSave
%Mem=1900MB
#P OB98/GEN NMR

erre ene a

0 1
  C      123.100    -182.081     170.225
  O      121.927    -182.247     171.039
  P      120.913    -181.006     171.215
  C      118.700    -182.119     170.390
  O      119.413    -181.540     171.470
  C      117.209    -182.312     170.745
  O      117.068    -183.384     171.716
  C      116.535    -181.072     171.350
  O      115.163    -181.087     170.932
  C      116.627    -181.336     172.844
  O      115.706    -180.576     173.613
  C      116.375    -182.851     172.862
  N      116.796    -183.520     174.097
  C      115.898    -183.550     175.161
  O      114.790    -183.011     175.159
  N      116.324    -184.226     176.282
  C      117.551    -184.812     176.447
  O      117.881    -185.371     177.487
  C      118.470    -184.720     175.308
  C      118.054    -184.089     174.200
  O      120.820    -180.438     169.719
  O      121.365    -179.935     172.151
  H      115.933    -179.635     173.482
  H      120.908    -179.465     169.732
  H      115.681    -184.274     177.059
  H      119.444    -185.174     175.400
  H      118.710    -184.015     173.341
  H      115.308    -183.045     172.700
  H      117.632    -181.087     173.198
  H      117.013    -180.136     171.050
  H      116.684    -182.635     169.837
  H      119.136    -183.085     170.138
  H      118.787    -181.463     169.513
  P      114.660    -179.957     169.904
  C      112.766    -181.278     168.660
  O      113.119    -180.264     169.580
  O      115.413    -180.428     168.564
  O      114.990    -178.557     170.311
  H      115.345    -181.390     168.415
  H      113.400    -182.166     168.775
  H      112.865    -180.898     167.643
  H      111.724    -181.561     168.835
  H      123.659    -182.993     170.215
  H      123.705    -181.296     170.628
  H      122.809    -181.830     169.226

 3  4  5  6  7  8  9  10  11  12  13  23  28  29  30  31  32 0
 6-311+G(2d,p)
 ****
 33  34 0
 6-311+G(2d,p)
 ****
 1  2  14  15  16  17  18  19  20  21  22  24  25  26 0
 3-21G
 ****
 27  35  36  37  38  39  40  41  42  43  44  45 0
 3-21G
 ****


