%nproc=1
%NoSave
%Mem=1900MB
#P OB98/GEN NMR

erre ene a

0 1
  C     -274.987    -139.268     193.981
  O     -275.758    -139.611     192.848
  H     -275.636    -139.090     194.841
  H     -274.314    -140.098     194.215
  H     -274.387    -138.376     193.776
  P     -276.810    -138.517     192.328
  C     -277.888    -138.107     190.000
  O     -276.770    -138.601     190.725
  C     -277.697    -138.389     188.513
  O     -276.698    -137.502     187.962
  C     -277.217    -139.801     188.196
  O     -278.277    -140.742     188.203
  C     -276.663    -139.600     186.796
  O     -277.747    -139.538     185.850
  C     -275.986    -138.228     186.922
  N     -271.452    -140.212     185.621
  C     -272.680    -140.337     185.077
  N     -273.838    -139.781     185.486
  C     -273.642    -139.025     186.578
  C     -272.451    -138.809     187.247
  C     -271.309    -139.440     186.720
  N     -270.056    -139.324     187.282
  N     -272.649    -138.000     188.351
  C     -273.933    -137.708     188.323
  N     -274.579    -138.311     187.276
  O     -276.085    -137.122     192.636
  O     -278.175    -138.596     192.923
  H     -278.345    -138.829     186.155
  H     -276.742    -136.403     192.666
  H     -272.741    -140.972     184.195
  H     -274.440    -137.068     189.032
  H     -276.056    -137.639     186.001
  H     -276.006    -140.409     186.476
  H     -276.403    -140.109     188.866
  H     -278.646    -138.177     188.004
  H     -277.970    -137.028     190.156
  H     -269.352    -139.960     186.942
  H     -269.974    -138.876     188.182
  H     -278.797    -138.593     190.366
  P     -277.962    -142.208     187.635
  C     -279.175    -144.476     188.030
  O     -278.770    -143.226     188.574
  O     -276.438    -142.445     188.055
  O     -278.177    -142.372     186.165
  H     -276.004    -143.073     187.450
  H     -279.699    -145.037     188.776
  H     -278.312    -145.023     187.713
  H     -279.819    -144.308     187.192

 6  7  8  9  10  11  12  13  14  15  25  28  32  33  34  35 0
 6-311+G(2d,p)
 ****
 36  39  40 0
 6-311+G(2d,p)
 ****
 1  2  3  4  5  16  17  18  19  20  21  22  23  24 0
 3-21G
 ****
 26  27  29  30  31  37  38  41  42  43  44  45  46  47 0
 3-21G
 ****
 48 0
 3-21G
 ****


