%nproc=1
%NoSave
%Mem=1900MB
#P OB98/GEN NMR

erre ene a

0 1
  C       80.444      24.060      80.269
  O       79.852      24.952      79.339
  P       79.933      24.567      77.782
  C       82.264      25.692      77.568
  O       81.488      24.514      77.393
  C       83.280      25.849      76.435
  O       84.203      24.724      76.472
  C       82.665      25.891      75.026
  O       83.472      26.783      74.250
  C       82.832      24.454      74.564
  O       82.704      24.279      73.163
  C       84.204      24.137      75.151
  N       87.798      20.531      74.688
  C       87.863      21.880      74.626
  N       86.864      22.776      74.767
  C       85.698      22.153      75.008
  C       85.474      20.788      75.079
  C       86.592      19.957      74.908
  N       86.522      18.579      74.964
  N       84.141      20.521      75.311
  C       83.567      21.705      75.376
  N       84.472      22.720      75.219
  O       79.417      25.893      77.055
  O       79.134      23.363      77.387
  H       82.730      23.327      72.943
  H       78.864      25.679      76.280
  H       88.849      22.296      74.438
  H       82.511      21.881      75.521
  H       85.014      24.605      74.578
  H       82.059      23.837      75.036
  H       81.630      26.245      75.016
  H       83.865      26.758      76.619
  H       82.811      25.629      78.513
  H       87.332      18.075      74.633
  H       85.599      18.164      74.921
  H       81.598      26.560      77.622
  P       82.760      27.734      73.172
  C       83.457      26.101      71.315
  O       82.378      26.737      71.971
  O       84.025      28.502      72.562
  O       81.684      28.621      73.694
  H       84.726      27.882      72.293
  H       83.053      25.384      70.594
  H       84.078      25.565      72.037
  H       84.057      26.842      70.778
  H       80.315      24.441      81.260
  H       81.488      23.965      80.057
  H       79.975      23.101      80.192

 3  4  5  6  7  8  9  10  11  12  22  25  29  30  31  32 0
 6-311+G(2d,p)
 ****
 33  36  37 0
 6-311+G(2d,p)
 ****
 1  2  13  14  15  16  17  18  19  20  21  23  24  26 0
 3-21G
 ****
 27  28  34  35  38  39  40  41  42  43  44  45  46  47  48 0
 3-21G
 ****


