%nproc=1
%NoSave
%Mem=1900MB
#P OB98/GEN NMR

erre ene a

0 1
  C      168.912    -320.837     441.966
  O      168.127    -320.832     440.786
  P      167.920    -319.486     439.947
  C      166.201    -318.146     441.338
  O      167.586    -318.353     441.040
  C      165.901    -316.655     441.508
  O      166.708    -316.089     442.564
  C      166.197    -315.819     440.270
  O      165.176    -315.976     439.300
  C      166.280    -314.418     440.876
  O      164.974    -313.846     441.049
  C      166.937    -314.701     442.240
  N      168.363    -314.369     442.258
  C      168.683    -313.067     442.668
  O      167.782    -312.271     442.959
  N      170.012    -312.695     442.688
  C      170.915    -313.530     442.316
  N      172.211    -313.096     442.349
  C      170.622    -314.897     441.848
  C      169.333    -315.247     441.840
  O      166.964    -319.575     438.807
  O      169.416    -319.104     439.498
  H      164.579    -313.797     440.154
  H      169.735    -319.700     438.771
  H      171.420    -315.562     441.536
  H      169.025    -316.239     441.518
  H      166.444    -314.117     443.033
  H      166.853    -313.727     440.245
  H      167.174    -316.096     439.853
  H      164.845    -316.550     441.793
  H      172.367    -312.139     442.650
  H      165.965    -318.667     442.267
  H      173.001    -313.661     442.042
  H      165.593    -318.574     440.538
  P      165.557    -316.335     437.786
  C      164.816    -313.954     437.171
  O      165.805    -314.950     437.007
  O      164.638    -317.301     437.102
  O      167.036    -316.951     437.907
  H      167.095    -317.747     437.354
  H      165.244    -312.985     436.883
  H      164.476    -313.902     438.205
  H      163.966    -314.172     436.522
  H      168.929    -321.824     442.379
  H      168.489    -320.160     442.678
  H      169.910    -320.531     441.732

 3  4  5  6  7  8  9  10  11  12  13  23  27  28  29  30  32 0
 6-311+G(2d,p)
 ****
 34  35 0
 6-311+G(2d,p)
 ****
 1  2  14  15  16  17  18  19  20  21  22  24  25  26 0
 3-21G
 ****
 31  33  36  37  38  39  40  41  42  43  44  45  46 0
 3-21G
 ****


