%nproc=1
%NoSave
%Mem=1900MB
#P OB98/GEN NMR

erre ene a

0 1
  C     -129.087     365.633     564.655
  O     -129.479     366.699     563.791
  P     -130.916     366.557     563.075
  C     -131.770     368.871     563.915
  O     -131.454     368.050     562.804
  C     -131.923     370.330     563.485
  O     -130.648     370.916     563.145
  C     -132.797     370.523     562.247
  O     -134.176     370.465     562.555
  C     -132.390     371.928     561.816
  O     -133.129     372.903     562.577
  C     -130.901     371.969     562.190
  N     -129.166     373.943     557.846
  C     -130.080     374.453     558.751
  N     -130.583     375.676     558.471
  N     -130.461     373.820     559.831
  C     -129.858     372.620     560.001
  C     -128.946     372.007     559.175
  C     -128.553     372.700     557.963
  O     -127.778     372.279     557.108
  N     -128.547     370.800     559.675
  C     -129.198     370.688     560.820
  N     -130.016     371.768     561.056
  O     -131.853     366.041     564.260
  O     -130.930     365.635     561.904
  H     -132.930     372.731     563.522
  H     -132.604     365.529     563.901
  H     -128.915     374.466     557.024
  H     -129.108     369.862     561.510
  H     -130.628     372.917     562.668
  H     -132.600     372.128     560.768
  H     -130.279     376.249     557.692
  H     -132.520     369.803     561.451
  H     -131.219     376.089     559.138
  H     -132.355     370.893     564.329
  H     -130.972     368.805     564.665
  H     -132.684     368.503     564.392
  P     -135.206     370.522     561.316
  C     -136.153     368.189     561.961
  O     -136.412     369.553     561.723
  O     -134.436     369.723     560.168
  O     -135.582     371.908     560.899
  H     -134.710     370.045     559.283
  H     -135.232     368.062     562.553
  H     -136.038     367.667     561.007
  H     -136.978     367.749     562.512
  H     -128.122     365.844     565.066
  H     -129.046     364.720     564.099
  H     -129.799     365.536     565.448

 3  4  5  6  7  8  9  10  11  12  23  26  30  31  33  0
 6-311+G(2d,p)
 ****
 35  36  37  38 0
 6-311+G(2d,p)
 ****
 1  2  13  14  15  16  17  18  19  20  21  22  24  25  27  28  29 0
 3-21G
 ****
 32  34  39  40  41  42  43  44  45  46  47  48  49 0
 3-21G
 ****


