%nproc=1
%NoSave
%Mem=1900MB
#P OB98/GEN NMR

erre ene a

0 1
  C      124.211     316.213     205.415
  O      124.754     315.812     206.660
  H      123.440     316.965     205.601
  H      123.761     315.366     204.894
  H      124.995     316.664     204.793
  P      125.724     314.530     206.681
  C      126.952     315.385     208.789
  O      127.069     315.025     207.413
  C      127.134     316.894     208.979
  O      126.005     317.607     208.424
  C      127.192     317.329     210.440
  O      128.366     316.919     211.111
  C      126.853     318.812     210.354
  O      127.983     319.639     210.089
  C      125.882     318.850     209.146
  N      124.507     319.103     209.560
  C      124.202     320.423     209.877
  O      125.033     321.339     209.836
  N      122.918     320.667     210.278
  C      121.938     319.719     210.442
  O      120.817     319.994     210.846
  C      122.331     318.336     210.119
  C      123.572     318.093     209.698
  O      125.964     313.869     205.357
  O      125.052     313.567     207.771
  H      128.630     319.474     210.805
  H      125.397     312.643     207.688
  H      122.675     321.617     210.500
  H      121.582     317.561     210.239
  H      123.886     317.080     209.454
  H      126.177     319.644     208.449
  H      126.404     319.172     211.284
  H      126.361     316.853     210.967
  H      128.032     317.209     208.434
  H      127.738     314.856     209.344
  H      125.974     315.067     209.172
  P      128.368     316.377     212.617
  C      129.931     314.299     212.671
  O      128.599     314.785     212.574
  O      127.321     316.932     213.536
  O      129.803     316.909     213.139
  H      129.705     317.127     214.085
  H      129.925     313.230     212.628
  H      130.360     314.616     213.599
  H      130.512     314.685     211.859

 6  7  8  9  10  11  12  13  14  15  16  26  31  32  33  34  35 0
 6-311+G(2d,p)
 ****
 36  37 0
 6-311+G(2d,p)
 ****
 1  2  3  4  5  17  18  19  20  21  22  23  24  25 0
 3-21G
 ****
 27  28  29  30  38  39  40  41  42  43  44  45 0
 3-21G
 ****


