%nproc=1
%NoSave
%Mem=1900MB
#P OB98/GEN NMR

erre ene a

0 1
  C     -771.666     -80.156    -749.025
  O     -772.315     -81.402    -748.850
  H     -771.875     -79.527    -748.155
  H     -772.056     -79.660    -749.915
  H     -770.583     -80.289    -749.110
  P     -771.876     -82.587    -749.838
  C     -772.547     -83.324    -752.243
  O     -772.811     -82.454    -751.148
  C     -773.218     -82.794    -753.515
  O     -774.654     -82.734    -753.341
  C     -772.780     -81.388    -753.919
  O     -771.557     -81.421    -754.658
  C     -773.936     -80.974    -754.800
  O     -773.821     -81.604    -756.094
  C     -775.140     -81.558    -754.038
  N     -778.391     -77.704    -753.380
  C     -777.979     -78.334    -754.542
  N     -778.498     -77.860    -755.699
  N     -777.129     -79.334    -754.574
  C     -776.669     -79.679    -753.347
  C     -777.002     -79.135    -752.121
  C     -777.952     -78.049    -752.110
  O     -778.366     -77.472    -751.091
  N     -776.332     -79.763    -751.094
  C     -775.577     -80.665    -751.705
  N     -775.754     -80.656    -753.075
  O     -772.439     -83.896    -749.102
  O     -770.411     -82.701    -750.103
  H     -774.498     -81.193    -756.674
  H     -771.693     -84.350    -748.658
  H     -779.048     -76.943    -753.400
  H     -774.921     -81.348    -751.198
  H     -775.943     -81.886    -754.713
  H     -773.975     -79.894    -754.972
  H     -779.146     -77.076    -755.745
  H     -772.714     -80.714    -753.049
  H     -778.215     -78.293    -756.555
  H     -773.014     -83.515    -754.330
  H     -772.938     -84.322    -752.019
  H     -771.460     -83.382    -752.394
  P     -770.702     -80.064    -754.746
  C     -770.778     -77.909    -756.193
  O     -771.417     -79.120    -755.842
  O     -769.363     -80.549    -755.483
  O     -770.396     -79.396    -753.438
  H     -768.602     -80.511    -754.868
  H     -771.366     -77.395    -756.924
  H     -769.810     -78.121    -756.597
  H     -770.674     -77.295    -755.323

 6  7  8  9  10  11  12  13  14  15  26  29  33  34 0
 6-311+G(2d,p)
 ****
 36  38  39  40  41 0
 6-311+G(2d,p)
 ****
 1  2  3  4  5  16  17  18  19  20  21  22  23  24  25 0
 3-21G
 ****
 27  28  30  31  32  35  37  42  43  44  45  46  47 0
 3-21G
 ****
 48  49 0
 3-21G
 ****


