%nproc=1
%NoSave
%Mem=1900MB
#P OB98/GEN NMR

erre ene a

0 1
  C     -820.453    1191.381    -141.047
  O     -820.796    1192.314    -142.068
  P     -820.505    1193.884    -141.890
  C     -822.826    1194.034    -140.820
  O     -821.446    1194.349    -140.685
  C     -823.683    1195.224    -140.363
  O     -823.742    1195.229    -138.913
  C     -823.156    1196.601    -140.740
  O     -823.516    1197.031    -142.051
  C     -823.877    1197.471    -139.719
  O     -825.231    1197.699    -140.135
  C     -823.835    1196.600    -138.466
  N     -822.333    1199.292    -134.372
  C     -823.537    1199.157    -134.979
  N     -823.851    1198.449    -136.091
  C     -822.779    1197.776    -136.525
  C     -821.497    1197.789    -136.016
  C     -821.289    1198.581    -134.871
  N     -820.060    1198.700    -134.246
  N     -820.646    1196.988    -136.761
  C     -821.423    1196.481    -137.689
  N     -822.720    1196.911    -137.582
  O     -820.622    1194.678    -143.155
  O     -819.044    1193.940    -141.243
  H     -825.655    1196.825    -140.241
  H     -818.656    1194.853    -141.355
  H     -824.365    1199.723    -134.526
  H     -821.091    1195.791    -138.466
  H     -824.756    1196.681    -137.865
  H     -823.412    1198.459    -139.594
  H     -822.079    1196.676    -140.574
  H     -824.700    1195.079    -140.737
  H     -823.049    1193.185    -140.165
  H     -820.044    1199.208    -133.355
  H     -819.324    1198.070    -134.508
  H     -823.060    1193.761    -141.839
  P     -822.325    1197.656    -142.959
  C     -822.298    1200.071    -141.982
  O     -821.668    1198.809    -142.084
  O     -822.765    1198.029    -144.327
  O     -821.224    1196.493    -142.941
  H     -820.802    1196.336    -142.085
  H     -821.775    1200.668    -141.212
  H     -823.347    1199.975    -141.680
  H     -822.236    1200.609    -142.929
  H     -820.727    1190.395    -141.358
  H     -820.976    1191.629    -140.147
  H     -819.399    1191.419    -140.869

 3  4  5  6  7  8  9  10  11  12  22  25  29  30  31  32 0
 6-311+G(2d,p)
 ****
 33  36  37 0
 6-311+G(2d,p)
 ****
 1  2  13  14  15  16  17  18  19  20  21  23  24  26 0
 3-21G
 ****
 27  28  34  35  38  39  40  41  42  43  44  45  46  47  48 0
 3-21G
 ****


