%nproc=1
%NoSave
%Mem=1900MB
#P OB98/GEN NMR

erre ene a

0 1
  C     -240.273    -155.183    -352.625
  O     -239.696    -154.372    -351.598
  P     -240.402    -154.400    -350.153
  C     -238.399    -153.331    -348.851
  O     -239.734    -153.202    -349.317
  C     -237.407    -152.791    -349.889
  O     -237.671    -151.377    -350.137
  C     -235.937    -152.923    -349.481
  O     -235.199    -153.227    -350.679
  C     -235.585    -151.529    -348.995
  O     -234.188    -151.280    -349.035
  C     -236.424    -150.676    -349.954
  N     -236.639    -149.316    -349.457
  C     -235.873    -148.310    -350.033
  O     -234.986    -148.532    -350.860
  N     -236.123    -147.038    -349.587
  C     -236.993    -146.700    -348.591
  O     -237.182    -145.542    -348.231
  C     -237.696    -147.817    -347.943
  C     -237.489    -149.057    -348.399
  O     -239.774    -155.724    -349.521
  O     -241.893    -154.372    -350.234
  H     -238.843    -155.870    -349.765
  H     -233.998    -150.457    -348.538
  H     -235.600    -146.291    -350.011
  H     -238.350    -147.593    -347.108
  H     -237.968    -149.905    -347.931
  H     -235.941    -150.614    -350.934
  H     -235.931    -151.398    -347.959
  H     -235.765    -153.703    -348.738
  H     -237.579    -153.320    -350.833
  H     -238.172    -154.385    -348.665
  H     -238.300    -152.806    -347.896
  P     -234.438    -154.647    -350.768
  C     -235.687    -156.059    -352.576
  O     -234.625    -155.188    -352.262
  O     -235.450    -155.558    -349.920
  O     -233.052    -154.650    -350.213
  H     -236.377    -155.436    -350.176
  H     -235.778    -156.119    -353.670
  H     -236.635    -155.697    -352.172
  H     -235.477    -157.060    -352.191
  H     -239.709    -155.071    -353.527
  H     -241.284    -154.877    -352.796
  H     -240.258    -156.209    -352.320

 3  4  5  6  7  8  9  10  11  12  13  24  28  29  30  31  32 0
 6-311+G(2d,p)
 ****
 33  34 0
 6-311+G(2d,p)
 ****
 1  2  14  15  16  17  18  19  20  21  22  23  25  26  27 0
 3-21G
 ****
 35  36  37  38  39  40  41  42  43  44  45 0
 3-21G
 ****


