%nproc=1
%NoSave
%Mem=1900MB
#P OB98/GEN NMR

erre ene a

0 1
  C     -705.128    -893.030    -811.790
  O     -704.185    -892.690    -810.793
  H     -704.604    -893.110    -812.749
  H     -705.895    -892.250    -811.884
  H     -705.594    -893.990    -811.564
  P     -704.722    -892.350    -809.316
  C     -703.086    -894.020    -808.217
  O     -704.453    -893.660    -808.428
  C     -702.980    -895.420    -807.610
  O     -703.361    -895.330    -806.197
  C     -703.893    -896.460    -808.274
  O     -703.193    -897.700    -808.311
  C     -705.068    -896.530    -807.326
  O     -705.761    -897.760    -807.444
  C     -704.426    -896.260    -805.961
  N     -705.392    -895.780    -804.985
  C     -706.074    -896.750    -804.254
  O     -705.852    -897.960    -804.422
  N     -707.060    -896.340    -803.377
  C     -707.370    -895.080    -803.293
  N     -708.362    -894.750    -802.445
  C     -706.680    -894.020    -804.077
  C     -705.712    -894.440    -804.882
  O     -706.107    -891.810    -809.235
  O     -703.645    -891.300    -808.765
  H     -706.431    -897.820    -806.734
  H     -703.926    -890.390    -808.970
  H     -706.967    -892.990    -803.979
  H     -705.146    -893.750    -805.524
  H     -703.979    -897.200    -805.573
  H     -705.783    -895.710    -807.563
  H     -704.209    -896.160    -809.294
  H     -701.932    -895.730    -807.637
  H     -708.838    -895.500    -801.936
  H     -702.659    -893.280    -807.543
  H     -708.722    -893.790    -802.324
  H     -702.549    -894.000    -809.168
  P     -702.192    -898.040    -809.513
  C     -700.063    -897.560    -808.175
  O     -700.839    -897.180    -809.316
  O     -702.790    -897.950    -810.883
  O     -701.717    -899.550    -809.207
  H     -701.521    -900.000    -810.043
  H     -699.189    -896.945    -808.117
  H     -699.772    -898.586    -808.267
  H     -700.648    -897.433    -807.288

 6  7  8  9  10  11  12  13  14  15  16  26  30  31  32  33  35 0
 6-311+G(2d,p)
 ****
 37  38 0
 6-311+G(2d,p)
 ****
 1  2  3  4  5  17  18  19  20  21  22  23  24  25 0
 3-21G
 ****
 27  28  29  34  36  39  40  41  42  43  44  45  46 0
 3-21G
 ****


