%nproc=1
%NoSave
%Mem=1900MB
#P OB98/GEN NMR

erre ene a

0 1
  C      133.916    -115.220     715.096
  O      133.814    -115.687     716.423
  H      134.966    -115.000     714.876
  H      133.331    -114.303     714.972
  H      133.566    -115.984     714.392
  P      132.349    -116.093     716.932
  C      131.417    -113.731     717.488
  O      131.912    -114.969     717.990
  C      130.867    -112.896     718.641
  O      129.683    -113.532     719.184
  C      131.824    -112.745     719.813
  O      132.833    -111.777     719.573
  C      130.874    -112.365     720.932
  O      130.583    -110.960     720.919
  C      129.612    -113.170     720.589
  N      126.944    -115.374     724.349
  C      126.778    -114.197     723.688
  N      127.529    -113.691     722.691
  C      128.522    -114.543     722.364
  C      128.812    -115.764     722.943
  C      127.970    -116.175     723.986
  N      128.153    -117.353     724.682
  N      129.943    -116.320     722.363
  C      130.310    -115.449     721.448
  N      129.491    -114.366     721.407
  O      132.624    -117.383     717.841
  O      131.359    -116.375     715.853
  H      129.873    -110.822     721.580
  H      132.417    -118.191     717.337
  H      125.937    -113.593     724.010
  H      131.173    -115.563     720.796
  H      128.689    -112.586     720.726
  H      131.300    -112.607     721.907
  H      132.281    -113.717     720.052
  H      130.573    -111.904     718.252
  H      130.617    -113.925     716.768
  H      132.228    -113.203     716.984
  H      127.551    -117.560     725.451
  H      128.978    -117.910     724.489
  P      134.364    -112.250     719.660
  C      134.687    -111.651     722.183
  O      135.050    -111.406     720.832
  O      135.026    -111.670     718.328
  O      134.556    -113.724     719.785
  H      135.702    -112.291     717.993
  H      135.242    -110.999     722.825
  H      134.905    -112.668     722.432
  H      133.640    -111.470     722.310

 6  7  8  9  10  11  12  13  14  15  25  28  32  33  34  35 0
 6-311+G(2d,p)
 ****
 36  37  40 0
 6-311+G(2d,p)
 ****
 1  2  3  4  5  16  17  18  19  20  21  22  23  24 0
 3-21G
 ****
 26  27  29  30  31  38  39 41  42  43  44  45  46  47  48 0
 3-21G
 ****


