%nproc=1
%NoSave
%Mem=1900MB
#P OB98/GEN NMR

erre ene a

0 1
  C       63.277     448.419     278.832
  O       64.390     448.199     277.948
  P       64.923     446.719     277.606
  C       65.710     444.735     279.057
  O       65.723     446.151     278.882
  C       66.620     444.299     280.213
  O       68.004     444.564     279.913
  C       66.338     445.009     281.539
  O       65.202     444.446     282.175
  C       67.659     444.796     282.276
  O       67.701     443.487     282.863
  C       68.675     444.909     281.135
  N       72.193     448.083     283.080
  C       71.864     446.801     283.381
  N       70.909     446.025     282.825
  C       70.278     446.689     281.836
  C       70.505     447.996     281.423
  C       71.511     448.709     282.092
  N       71.836     450.016     281.798
  N       69.647     448.337     280.400
  C       68.922     447.256     280.186
  N       69.272     446.235     281.028
  O       65.680     446.622     276.320
  O       63.604     445.813     277.564
  H       67.478     442.843     282.166
  H       63.748     445.054     276.960
  H       72.442     446.345     284.182
  H       68.143     447.158     279.430
  H       69.501     444.189     281.257
  H       67.811     445.522     283.082
  H       66.186     446.083     281.368
  H       66.506     443.217     280.336
  H       66.056     444.273     278.124
  H       72.551     450.466     282.349
  H       71.303     450.502     281.091
  H       64.680     444.421     279.247
  P       64.160     445.398     282.943
  C       64.194     446.853     285.047
  O       64.834     445.812     284.336
  O       62.764     444.874     283.039
  O       64.203     446.766     282.104
  H       63.342     447.212     282.165
  H       64.481     447.824     284.629
  H       64.527     446.812     286.094
  H       63.109     446.741     285.022
  H       63.092     449.469     278.919
  H       63.503     448.016     279.797
  H       62.408     447.935     278.438

 3  4  5  6  7  8  9  10  11  12  22  25  29  30  31  32 0
 6-311+G(2d,p)
 ****
 33  36  37 0
 6-311+G(2d,p)
 ****
 1  2  13  14  15  16  17  18  19  20  21  23  24  26 0
 3-21G
 ****
 27  28  34  35  38  39  40  41  42  43  44  45  46  47  48 0
 3-21G
 ****


