%nproc=1
%NoSave
%Mem=1900MB
#P OB98/GEN NMR

erre ene a

0 1
  C     -456.947    -310.562     118.103
  O     -458.172    -311.260     117.948
  P     -459.435    -310.458     117.364
  C     -460.247    -312.383     115.823
  O     -460.533    -311.559     116.943
  C     -461.200    -313.574     115.748
  O     -460.742    -314.604     116.674
  C     -462.660    -313.251     116.129
  O     -463.500    -314.105     115.331
  C     -462.744    -313.677     117.585
  O     -464.083    -313.916     117.994
  C     -461.853    -314.916     117.556
  N     -461.863    -318.498     121.217
  C     -462.435    -318.460     119.994
  N     -462.386    -317.471     119.069
  C     -461.652    -316.439     119.524
  C     -461.038    -316.316     120.759
  C     -461.151    -317.419     121.633
  N     -460.559    -317.468     122.876
  N     -460.402    -315.095     120.869
  C     -460.624    -314.496     119.714
  N     -461.355    -315.270     118.868
  O     -458.892    -309.917     115.960
  O     -459.937    -309.346     118.225
  H     -464.509    -313.061     118.201
  H     -458.795    -308.945     115.988
  H     -463.009    -319.341     119.709
  H     -460.285    -313.491     119.463
  H     -462.374    -315.802     117.141
  H     -462.320    -312.896     118.218
  H     -462.934    -312.198     115.979
  H     -461.151    -314.001     114.737
  H     -459.227    -312.760     115.916
  H     -460.576    -318.334     123.380
  H     -459.879    -316.746     123.111
  H     -460.314    -311.784     114.904
  P     -464.564    -313.377     114.366
  C     -463.874    -314.902     112.382
  O     -464.930    -314.424     113.216
  O     -463.677    -312.260     113.618
  O     -465.728    -312.771     115.086
  H     -464.249    -311.511     113.363
  H     -464.093    -315.937     112.101
  H     -462.903    -314.871     112.886
  H     -463.827    -314.285     111.476
  H     -456.206    -311.225     118.499
  H     -457.087    -309.741     118.775
  H     -456.624    -310.193     117.152

 3  4  5  6  7  8  9  10  11  12  22  25  29  30  31  32 0
 6-311+G(2d,p)
 ****
 33  36  37 0
 6-311+G(2d,p)
 ****
 1  2  13  14  15  16  17  18  19  20  21  23  24  26 0
 3-21G
 ****
 27  28  34  35  38  39  40  41  42  43  44  45  46  47  48 0
 3-21G
 ****


