%nproc=1
%NoSave
%Mem=1900MB
#P OB98/GEN NMR

erre ene a

0 1
  C      957.025    -976.209    1173.123
  O      957.850    -975.971    1171.991
  P      958.283    -977.139    1170.955
  C      957.524    -975.620    1168.999
  O      957.472    -976.922    1169.559
  C      956.287    -975.359    1168.127
  O      956.363    -976.148    1166.916
  C      954.926    -975.680    1168.789
  O      954.012    -974.633    1168.373
  C      954.582    -977.009    1168.168
  O      953.215    -977.361    1168.284
  C      955.074    -976.810    1166.750
  N      955.175    -977.980    1165.889
  C      954.252    -978.165    1164.882
  O      953.290    -977.374    1164.756
  N      954.341    -979.247    1164.064
  C      955.269    -980.132    1164.219
  N      955.338    -981.174    1163.374
  C      956.318    -979.972    1165.297
  C      956.190    -978.886    1166.081
  O      958.154    -978.506    1171.507
  O      959.800    -976.840    1170.571
  H      960.296    -977.664    1170.453
  H      952.669    -976.719    1167.795
  H      957.108    -980.715    1165.396
  H      956.933    -978.749    1166.871
  H      954.383    -976.078    1166.248
  H      955.171    -977.788    1168.690
  H      954.959    -975.683    1169.873
  H      956.309    -974.301    1167.802
  H      954.630    -981.250    1162.666
  H      958.427    -975.531    1168.391
  H      956.066    -981.892    1163.434
  H      957.587    -974.878    1169.840
  P      954.489    -973.124    1168.321
  C      954.650    -973.038    1165.726
  O      955.328    -972.931    1166.959
  O      955.670    -973.114    1169.430
  O      953.498    -972.063    1168.679
  H      955.771    -972.212    1169.774
  H      954.966    -972.197    1165.059
  H      953.567    -972.992    1165.828
  H      954.904    -973.972    1165.263
  H      956.876    -975.293    1173.655
  H      957.498    -976.922    1173.766
  H      956.079    -976.592    1172.801

 3  4  5  6  7  8  9  10  11  12  13  24  27  28  29  30  32 0
 6-311+G(2d,p)
 ****
 34  35 0
 6-311+G(2d,p)
 ****
 1  2  14  15  16  17  18  19  20  21  22  23  25  26 0
 3-21G
 ****
 31  33  36  37  38  39  40  41  42  43  44  45  46 0
 3-21G
 ****


