%nproc=1
%NoSave
%Mem=1900MB
#P OB98/GEN NMR

erre ene a

0 1
  C      155.144    -319.385     197.124
  O      153.820    -319.219     196.608
  P      153.405    -320.110     195.339
  C      151.360    -321.609     194.750
  O      151.852    -320.480     195.462
  C      149.856    -321.770     194.991
  O      149.578    -322.058     196.375
  C      149.061    -320.515     194.675
  O      148.879    -320.375     193.282
  C      147.768    -320.758     195.449
  O      146.792    -321.445     194.647
  C      148.224    -321.638     196.634
  N      148.113    -320.962     197.914
  C      146.815    -320.759     198.387
  O      145.844    -321.124     197.719
  N      146.648    -320.123     199.592
  C      147.688    -319.705     200.251
  N      147.456    -319.078     201.434
  C      149.073    -319.878     199.775
  C      149.211    -320.506     198.608
  O      154.143    -321.504     195.617
  O      153.813    -319.518     194.027
  H      146.504    -320.801     193.974
  H      154.408    -321.916     194.773
  H      149.905    -319.504     200.351
  H      150.194    -320.676     198.179
  H      147.622    -322.553     196.681
  H      147.308    -319.813     195.762
  H      149.573    -319.634     195.086
  H      149.489    -322.610     194.379
  H      146.495    -318.976     201.735
  H      151.888    -322.515     195.062
  H      148.191    -318.707     202.026
  H      151.573    -321.472     193.681
  P      149.649    -319.190     192.541
  C      150.588    -318.892     190.167
  O      149.696    -319.616     190.993
  O      151.170    -319.435     192.998
  O      149.202    -317.793     192.829
  H      151.736    -318.708     192.681
  H      150.677    -319.417     189.207
  H      151.576    -318.836     190.631
  H      150.199    -317.889     189.987
  H      155.284    -318.735     197.962
  H      155.856    -319.144     196.363
  H      155.282    -320.400     197.433

 3  4  5  6  7  8  9  10  11  12  13  21  23  27  28  29  30  32 0
 6-311+G(2d,p)
 ****
 34  35 0
 6-311+G(2d,p)
 ****
 1  2  14  15  16  17  18  19  20  22  24  25  26 0
 3-21G
 ****
 31  33  36  37  38  39  40  41  42  43  44  45  46 0
 3-21G
 ****


