%nproc=1
%NoSave
%Mem=1900MB
#P OB98/GEN NMR

erre ene a

0 1
  C      388.826    -101.992    -199.481
  O      388.174    -102.359    -200.682
  H      388.158    -102.214    -198.638
  H      389.039    -100.922    -199.485
  H      389.752    -102.557    -199.349
  P      389.025    -102.395    -202.040
  C      388.161    -100.037    -202.639
  O      388.297    -101.387    -203.059
  C      386.895     -99.409    -203.234
  O      387.049     -99.346    -204.687
  C      385.602    -100.207    -202.943
  O      384.528     -99.255    -202.850
  C      385.489    -101.038    -204.203
  O      384.213    -101.627    -204.333
  C      385.887     -99.996    -205.252
  N      386.183    -100.568    -206.566
  C      385.142    -100.610    -207.486
  O      384.012    -100.180    -207.269
  N      385.448    -101.186    -208.697
  C      386.658    -101.712    -209.046
  O      386.884    -102.203    -210.155
  C      387.706    -101.664    -208.020
  C      387.423    -101.094    -206.840
  O      389.308    -103.750    -202.593
  O      390.373    -101.609    -201.663
  H      391.071    -102.260    -201.446
  H      384.112    -102.356    -203.681
  H      384.706    -101.232    -209.379
  H      388.672    -102.087    -208.262
  H      388.175    -101.042    -206.054
  H      385.107     -99.232    -205.356
  H      386.209    -101.865    -204.182
  H      385.659    -100.786    -202.017
  H      386.808     -98.375    -202.879
  H      389.042     -99.479    -202.975
  H      388.112    -100.004    -201.539
  P      383.876     -98.799    -201.457
  C      381.731    -100.214    -201.236
  O      382.276     -98.941    -201.552
  O      384.321     -97.446    -200.999
  O      384.302     -99.915    -200.394
  H      384.454     -99.498    -199.533
  H      380.666    -100.181    -201.336
  H      381.987    -100.472    -200.230
  H      382.129    -100.948    -201.905

 6  7  8  9  10  11  12  13  14  15  16  27  31  32  33  34  35 0
 6-311+G(2d,p)
 ****
 36  37 0
 6-311+G(2d,p)
 ****
 1  2  3  4  5  17  18  19  20  21  22  23  24  25 0
 3-21G
 ****
 26  28  29  30  38  39  40  41  42  43  44  45 0
 3-21G
 ****


