%nproc=1
%NoSave
%Mem=1900MB
#P OB98/GEN NMR

erre ene a

0 1
  C      312.609     -90.274     309.379
  O      313.407     -91.138     310.156
  H      311.673     -90.093     309.916
  H      312.373     -90.725     308.414
  H      313.117     -89.316     309.233
  P      314.765     -91.723     309.523
  C      313.656     -92.801     307.473
  O      314.498     -91.749     307.931
  C      314.205     -93.444     306.198
  O      313.350     -94.550     305.801
  C      314.304     -92.480     305.008
  O      315.579     -92.629     304.376
  C      313.197     -92.955     304.071
  O      313.441     -92.587     302.716
  C      313.181     -94.459     304.373
  N      311.951     -95.116     303.934
  C      311.876     -95.448     302.577
  O      312.798     -95.152     301.812
  N      310.743     -96.068     302.109
  C      309.751     -96.289     302.916
  N      308.655     -96.895     302.391
  C      309.773     -95.913     304.341
  C      310.894     -95.341     304.782
  O      315.216     -93.023     310.105
  O      315.827     -90.542     309.688
  H      314.402     -92.669     302.539
  H      316.744     -90.911     309.623
  H      308.917     -96.110     304.976
  H      311.000     -95.041     305.822
  H      314.028     -94.962     303.892
  H      312.240     -92.506     304.377
  H      314.168     -91.441     305.283
  H      315.186     -93.888     306.432
  H      308.678     -97.141     301.406
  H      312.655     -92.397     307.292
  H      307.824     -97.115     302.919
  H      313.600     -93.564     308.263
  P      316.585     -91.384     304.525
  C      316.069     -90.089     302.339
  O      315.936     -90.130     303.751
  O      317.825     -91.804     303.607
  O      317.004     -91.115     305.937
  H      318.556     -92.146     304.160
  H      315.594     -89.208     301.961
  H      315.606     -90.954     301.912
  H      317.107     -90.074     302.079

 6  7  8  9  10  11  12  13  14  15  16  26  30  31  32  33  35 0
 6-311+G(2d,p)
 ****
 37  38 0
 6-311+G(2d,p)
 ****
 1  2  3  4  5  17  18  19  20  21  22  23  24  25 0
 3-21G
 ****
 27  28  29  34  36  39  40  41  42  43  44  45  46 0
 3-21G
 ****


