%nproc=1
%NoSave
%Mem=1900MB
#P OB98/GEN NMR

erre ene a

0 1
  C     -391.937     381.837     389.116
  O     -392.520     381.794     387.815
  P     -393.819     380.886     387.579
  C     -392.919     379.345     385.708
  O     -393.817     380.397     386.050
  C     -391.984     379.773     384.581
  O     -390.845     380.527     385.076
  C     -391.385     378.602     383.818
  O     -392.340     378.002     382.964
  C     -390.212     379.262     383.118
  O     -390.637     379.922     381.911
  C     -389.752     380.310     384.162
  N     -388.536     379.926     384.870
  C     -387.338     380.274     384.253
  O     -387.338     380.838     383.154
  N     -386.153     379.962     384.890
  C     -386.179     379.350     386.024
  N     -384.984     379.057     386.614
  C     -387.430     378.947     386.704
  C     -388.563     379.254     386.071
  O     -395.104     381.453     388.063
  O     -393.451     379.531     388.365
  H     -391.265     380.612     382.188
  H     -394.274     379.121     388.693
  H     -387.401     378.444     387.666
  H     -389.530     379.001     386.493
  H     -389.571     381.277     383.678
  H     -389.442     378.537     382.826
  H     -391.013     377.847     384.537
  H     -392.545     380.406     383.892
  H     -384.144     379.335     386.129
  H     -393.485     378.458     385.411
  H     -384.908     378.640     387.524
  H     -392.353     379.066     386.608
  P     -392.749     376.475     383.247
  C     -391.734     375.370     381.123
  O     -392.908     375.742     381.829
  O     -394.266     376.594     383.766
  O     -391.888     375.771     384.240
  H     -394.434     375.903     384.433
  H     -391.991     374.624     380.366
  H     -390.988     374.939     381.806
  H     -391.313     376.251     380.622
  H     -391.085     382.484     389.104
  H     -391.633     380.852     389.403
  H     -392.656     382.207     389.817

 3  4  5  6  7  8  9  10  11  12  13  23  27  28  29  30  32 0
 6-311+G(2d,p)
 ****
 34  35 0
 6-311+G(2d,p)
 ****
 1  2  14  15  16  17  18  19  20  21  22  24  25  26 0
 3-21G
 ****
 31  33  36  37  38  39  40  41  42  43  44  45  46 0
 3-21G
 ****


