%nproc=1
%NoSave
%Mem=1900MB
#P OB98/GEN NMR

erre ene a

0 1
  C     -219.685    -100.988     114.840
  O     -218.946    -102.071     115.393
  P     -217.362    -101.953     115.608
  C     -216.734    -103.830     117.254
  O     -216.824    -103.441     115.885
  C     -216.691    -105.352     117.380
  O     -217.936    -105.900     116.870
  C     -215.549    -105.995     116.598
  O     -215.059    -107.120     117.333
  C     -216.207    -106.510     115.329
  O     -215.475    -107.619     114.774
  C     -217.613    -106.850     115.832
  N     -218.781    -107.922     110.943
  C     -217.682    -108.188     111.683
  N     -217.432    -107.855     112.965
  C     -218.481    -107.213     113.507
  C     -219.673    -106.875     112.878
  C     -219.805    -107.252     111.528
  N     -220.929    -106.990     110.778
  N     -220.509    -106.197     113.745
  C     -219.843    -106.147     114.879
  N     -218.621    -106.760     114.789
  O     -216.933    -100.940     116.620
  O     -216.783    -101.623     114.155
  H     -215.971    -107.927     113.990
  H     -216.042    -100.987     114.220
  H     -216.899    -108.750     111.170
  H     -220.194    -105.676     115.789
  H     -217.656    -107.860     116.268
  H     -216.233    -105.714     114.577
  H     -214.727    -105.296     116.390
  H     -216.630    -105.615     118.448
  H     -217.616    -103.446     117.777
  H     -220.984    -107.401     109.856
  H     -221.754    -106.648     111.258
  H     -215.841    -103.374     117.705
  P     -213.465    -107.156     117.589
  C     -213.412    -108.235     119.959
  O     -213.239    -108.406     118.571
  O     -212.939    -105.827     118.038
  O     -212.932    -107.644     116.159
  H     -213.622    -108.155     115.669
  H     -213.176    -109.183     120.461
  H     -214.452    -107.978     120.182
  H     -212.746    -107.451     120.339
  H     -220.719    -101.257     114.776
  H     -219.313    -100.765     113.862
  H     -219.579    -100.127     115.466

 3  4  5  6  7  8  9  10  11  12  22  25  29  30  31  32 0
 6-311+G(2d,p)
 ****
 33  36  37 0
 6-311+G(2d,p)
 ****
 1  2  13  14  15  16  17  18  19  20  21  23  24  26 0
 3-21G
 ****
 27  28  34  35  38  39  40  41  42  43  44  45  46  47  48 0
 3-21G
 ****


