%nproc=1
%NoSave
%Mem=1900MB
#P OB98/GEN NMR

erre ene a

0 1
  C       -1.438    -427.438    -309.910
  O       -0.638    -428.055    -310.920
  P        0.148    -427.260    -312.057
  C       -0.514    -425.800    -314.143
  O       -0.932    -426.619    -313.055
  C       -0.952    -426.346    -315.518
  O       -0.213    -427.561    -315.814
  C       -2.428    -426.735    -315.488
  O       -3.432    -425.755    -315.688
  C       -2.529    -427.927    -316.435
  O       -2.896    -427.544    -317.762
  C       -1.113    -428.509    -316.420
  N       -2.377    -433.465    -316.396
  C       -2.748    -432.475    -317.279
  N       -3.600    -432.838    -318.267
  N       -2.325    -431.243    -317.200
  C       -1.551    -430.997    -316.125
  C       -1.126    -431.884    -315.163
  C       -1.547    -433.269    -315.290
  O       -1.240    -434.193    -314.545
  N       -0.364    -431.275    -314.212
  C       -0.336    -430.007    -314.573
  N       -1.038    -429.790    -315.741
  O        1.288    -427.991    -312.686
  O        0.754    -425.982    -311.282
  H       -2.145    -427.066    -318.159
  H        1.609    -425.770    -311.712
  H       -2.709    -434.407    -316.513
  H        0.173    -429.214    -314.040
  H       -0.746    -428.676    -317.442
  H       -3.299    -428.631    -316.090
  H       -4.057    -433.737    -318.308
  H       -2.636    -427.140    -314.484
  H       -4.046    -432.075    -318.777
  H       -0.707    -425.637    -316.309
  H        0.579    -425.736    -314.087
  H       -0.894    -424.781    -314.013
  P       -4.244    -424.985    -314.543
  C       -6.557    -425.136    -313.446
  O       -5.618    -425.763    -314.307
  O       -4.733    -423.634    -315.259
  O       -3.468    -424.677    -313.301
  H       -5.013    -422.980    -314.595
  H       -7.285    -425.878    -313.114
  H       -7.074    -424.340    -313.992
  H       -6.056    -424.716    -312.571
  H       -1.854    -428.192    -309.274
  H       -2.229    -426.884    -310.371
  H       -0.831    -426.776    -309.329

 3  4  5  6  7  8  9  10  11  12  23  26  30  31 0
 6-311+G(2d,p)
 ****
 33  35  36  37  38 0
 6-311+G(2d,p)
 ****
 1  2  13  14  15  16  17  18  19  20  21  22  24  25 0
 3-21G
 ****
 27  28  29  32  34  39  40  41  42  43  44  45  46  47  48  49 0
 3-21G
 ****


