%nproc=1
%NoSave
%Mem=1900MB
#P OB98/GEN NMR

erre ene a

0 1
  C       -0.029     115.016    -153.440
  O       -0.284     115.199    -152.053
  P        0.928     115.671    -151.115
  C        3.235     114.663    -150.493
  O        1.916     114.414    -150.958
  C        3.870     113.395    -149.926
  O        3.727     112.321    -150.895
  C        5.363     113.519    -149.605
  O        5.625     112.683    -148.471
  C        6.028     112.916    -150.829
  O        7.363     112.493    -150.565
  C        5.046     111.791    -151.146
  N        8.006     109.391    -154.555
  C        8.179     109.654    -153.242
  N        7.345     110.298    -152.401
  C        6.231     110.689    -153.043
  C        5.931     110.523    -154.384
  C        6.879     109.834    -155.161
  N        6.699     109.555    -156.495
  N        4.706     111.085    -154.680
  C        4.275     111.581    -153.539
  N        5.152     111.344    -152.518
  O        0.234     115.783    -149.677
  O        1.575     116.953    -151.508
  H        7.848     113.243    -150.171
  H        0.187     116.720    -149.403
  H        9.108     109.294    -152.809
  H        3.347     112.117    -153.402
  H        5.190     110.920    -150.495
  H        6.060     113.657    -151.635
  H        5.694     114.543    -149.407
  H        3.309     113.098    -149.032
  H        3.191     115.416    -149.700
  H        7.357     108.940    -156.947
  H        5.786     109.711    -156.909
  H        3.844     115.058    -151.312
  P        6.902     113.053    -147.575
  C        9.466     113.079    -147.959
  O        8.195     112.701    -148.449
  O        6.892     111.926    -146.437
  O        6.861     114.427    -146.991
  H        7.313     112.268    -145.627
  H       10.202     112.334    -148.273
  H        9.478     113.148    -146.866
  H        9.740     114.050    -148.382
  H       -0.927     114.703    -153.930
  H        0.726     114.269    -153.568
  H        0.306     115.939    -153.866

 3  4  5  6  7  8  9  10  11  12  22  25  29  30  31  32 0
 6-311+G(2d,p)
 ****
 33  36  37 0
 6-311+G(2d,p)
 ****
 1  2  13  14  15  16  17  18  19  20  21  23  24  26 0
 3-21G
 ****
 27  28  34  35  38  39  40  41  42  43  44  45  46  47  48 0
 3-21G
 ****


