%nproc=1
%NoSave
%Mem=1900MB
#P OB98/GEN NMR

erre ene a

0 1
  C      182.678      37.411    -612.832
  O      184.010      37.124    -613.196
  H      182.649      37.643    -611.762
  H      182.043      36.540    -613.013
  H      182.294      38.271    -613.384
  P      184.371      36.945    -614.747
  C      183.843      34.419    -614.706
  O      183.527      35.683    -615.275
  C      184.184      33.421    -615.809
  O      184.525      32.142    -615.243
  C      183.035      33.154    -616.788
  O      182.876      34.232    -617.694
  C      183.506      31.844    -617.415
  O      184.481      32.089    -618.439
  C      184.137      31.127    -616.198
  N      183.250      30.138    -615.588
  C      183.653      28.811    -615.660
  O      184.671      28.448    -616.241
  N      182.818      27.899    -615.063
  C      181.615      28.171    -614.484
  O      180.881      27.321    -614.003
  C      181.222      29.590    -614.460
  C      182.037      30.500    -615.004
  O      185.826      36.913    -615.089
  O      183.630      38.184    -615.447
  H      185.070      32.794    -618.107
  H      184.276      38.890    -615.626
  H      183.087      26.929    -615.113
  H      180.270      29.852    -614.012
  H      181.770      31.540    -615.009
  H      185.063      30.609    -616.502
  H      182.690      31.291    -617.889
  H      182.108      32.966    -616.234
  H      185.064      33.804    -616.352
  H      182.974      34.052    -614.150
  H      184.685      34.536    -614.018
  P      181.642      34.267    -618.712
  C      183.040      32.773    -620.259
  O      181.759      32.981    -619.669
  O      181.444      35.566    -619.424
  O      180.371      33.930    -617.786
  H      179.852      34.735    -617.631
  H      183.012      31.897    -620.873
  H      183.771      32.645    -619.488
  H      183.299      33.621    -620.858

 6  7  8  9  10  11  12  13  14  15  16  26  31  32  33  34  35 0
 6-311+G(2d,p)
 ****
 36  37 0
 6-311+G(2d,p)
 ****
 1  2  3  4  5  17  18  19  20  21  22  23  24  25 0
 3-21G
 ****
 27  28  29  30  38  39  40  41  42  43  44  45 0
 3-21G
 ****


