%nproc=1
%NoSave
%Mem=1900MB
#P OB98/GEN NMR

erre ene a

0 1
  C      812.898    -224.433    -753.400
  O      811.497    -224.652    -753.327
  P      810.508    -223.420    -753.112
  C      808.464    -224.320    -754.440
  O      809.010    -223.992    -753.185
  C      807.163    -225.148    -754.279
  O      807.526    -226.425    -753.687
  C      806.144    -224.540    -753.339
  O      804.874    -225.150    -753.593
  C      806.642    -224.981    -751.976
  O      805.633    -224.931    -750.975
  C      807.222    -226.399    -752.283
  N      808.429    -226.674    -751.479
  C      808.379    -226.316    -750.133
  O      807.372    -225.865    -749.591
  N      809.566    -226.423    -749.438
  C      810.760    -226.803    -749.986
  O      811.851    -226.595    -749.456
  C      810.700    -227.388    -751.335
  C      809.549    -227.274    -752.018
  O      810.658    -222.586    -754.474
  O      810.799    -222.571    -751.919
  H      806.032    -225.311    -750.152
  H      811.308    -221.864    -754.361
  H      809.561    -226.028    -748.515
  H      811.589    -227.846    -751.738
  H      809.488    -227.649    -753.043
  H      806.472    -227.183    -752.065
  H      807.464    -224.304    -751.666
  H      806.056    -223.453    -753.398
  H      806.732    -225.338    -755.264
  H      809.212    -224.880    -755.019
  H      808.236    -223.418    -755.006
  P      803.759    -224.283    -754.364
  C      803.187    -226.299    -755.834
  O      802.690    -225.334    -754.938
  O      804.257    -223.283    -755.337
  O      802.951    -223.597    -753.149
  H      802.450    -222.842    -753.485
  H      802.582    -227.221    -755.757
  H      804.222    -226.567    -755.616
  H      803.121    -225.924    -756.858
  H      813.398    -225.368    -753.545
  H      813.237    -223.985    -752.489
  H      813.115    -223.781    -754.220

 3  4  5  6  7  8  9  10  11  12  13  23  28  29  30  31  32 0
 6-311+G(2d,p)
 ****
 33  34 0
 6-311+G(2d,p)
 ****
 1  2  14  15  16  17  18  19  20  21  22  24  25  26  27 0
 3-21G
 ****
 35  36  37  38  39  40  41  42  43  44  45 0
 3-21G
 ****


