%nproc=1
%NoSave
%Mem=1900MB
#P OB98/GEN NMR

erre ene a

0 1
  C     1509.466     230.376      32.967
  O     1509.299     229.982      34.317
  H     1509.540     231.463      32.899
  H     1510.382     229.940      32.575
  H     1508.618     230.023      32.369
  P     1507.992     230.517      35.078
  C     1506.750     228.372      34.314
  O     1506.748     229.793      34.372
  C     1505.607     227.834      35.168
  O     1504.368     228.504      34.830
  C     1505.317     226.351      34.971
  O     1506.216     225.521      35.729
  C     1503.905     226.248      35.514
  O     1503.927     226.270      36.956
  C     1503.279     227.543      34.970
  N     1499.281     225.426      32.594
  C     1499.679     225.376      33.882
  N     1500.767     225.972      34.425
  C     1501.459     226.657      33.514
  C     1501.173     226.773      32.159
  C     1500.019     226.121      31.700
  N     1499.606     226.142      30.389
  N     1502.140     227.532      31.521
  C     1502.966     227.880      32.484
  N     1502.611     227.366      33.693
  O     1507.857     232.027      34.578
  O     1508.017     230.404      36.566
  H     1504.294     227.138      37.217
  H     1507.314     232.546      35.210
  H     1499.057     224.804      34.555
  H     1503.841     228.514      32.343
  H     1502.545     227.976      35.662
  H     1503.392     225.337      35.212
  H     1505.328     226.076      33.907
  H     1505.823     228.049      36.219
  H     1507.697     227.995      34.705
  H     1498.878     225.483      30.127
  H     1500.236     226.535      29.691
  H     1506.621     228.050      33.272
  P     1506.469     224.034      35.182
  C     1508.751     224.728      34.103
  O     1507.438     224.192      33.917
  O     1505.069     223.631      34.559
  O     1506.932     223.065      36.241
  H     1504.936     222.652      34.580
  H     1509.258     224.763      33.162
  H     1509.298     224.105      34.780
  H     1508.679     225.716      34.507

 6  7  8  9  10  11  12  13  14  15  25  28  32  33  34  35 0
 6-311+G(2d,p)
 ****
 36  39  40 0
 6-311+G(2d,p)
 ****
 1  2  3  4  5  16  17  18  19  20  21  22  23  24 0
 3-21G
 ****
 26  27  29  30  31  37  38  41  42  43  44  45  46  47 0
 3-21G
 ****
 48 0
 3-21G
 ****


