%nproc=1
%NoSave
%Mem=1900MB
#P OB98/GEN NMR

erre ene a

0 1
  C     -712.563     -63.543     653.314
  O     -713.184     -64.502     652.477
  H     -712.959     -62.556     653.073
  H     -711.485     -63.543     653.140
  H     -712.770     -63.759     654.367
  P     -712.933     -66.047     652.808
  C     -713.267     -66.902     650.377
  O     -713.750     -66.891     651.711
  C     -714.425     -66.740     649.398
  O     -715.427     -67.761     649.697
  C     -715.130     -65.376     649.480
  O     -715.533     -65.001     648.148
  C     -716.360     -65.665     650.310
  O     -717.422     -64.752     650.106
  C     -716.698     -67.093     649.842
  N     -717.559     -67.798     650.783
  C     -718.872     -68.054     650.371
  O     -719.324     -67.805     649.266
  N     -719.679     -68.630     651.328
  C     -719.320     -68.943     652.610
  O     -720.096     -69.446     653.419
  C     -717.928     -68.644     652.972
  C     -717.127     -68.087     652.063
  O     -713.781     -66.268     654.149
  O     -711.505     -66.449     652.960
  H     -713.229     -66.087     654.937
  H     -717.600     -64.709     649.142
  H     -720.629     -68.819     651.057
  H     -717.609     -68.863     653.988
  H     -716.104     -67.842     652.305
  H     -717.168     -67.061     648.854
  H     -716.094     -65.657     651.376
  H     -714.511     -64.580     649.904
  H     -714.064     -66.942     648.377
  H     -712.756     -67.855     650.178
  H     -712.540     -66.085     650.249
  P     -714.912     -63.653     647.542
  C     -717.187     -62.976     646.438
  O     -715.818     -63.296     646.271
  O     -713.542     -64.198     646.930
  O     -714.758     -62.573     648.556
  H     -713.617     -65.092     646.558
  H     -717.624     -62.768     645.484
  H     -717.278     -62.115     647.067
  H     -717.694     -63.803     646.890

 6  7  8  9  10  11  12  13  14  15  16  27  31  32  33  34  35 0
 6-311+G(2d,p)
 ****
 36  37 0
 6-311+G(2d,p)
 ****
 1  2  3  4  5  17  18  19  20  21  22  23  24  25 0
 3-21G
 ****
 26  28  29  30  38  39  40  41  42  43  44  45 0
 3-21G
 ****


