%nproc=1
%NoSave
%Mem=1900MB
#P OB98/GEN NMR

erre ene a

0 1
  C       58.373      56.166     197.735
  O       57.771      57.382     197.344
  H       59.175      56.382     198.446
  H       58.802      55.659     196.868
  H       57.635      55.518     198.219
  P       56.601      57.294     196.252
  C       58.027      57.780     194.135
  O       57.033      58.251     195.037
  C       58.791      58.969     193.548
  O       57.881      59.831     192.832
  C       59.449      59.862     194.598
  O       60.653      59.310     195.089
  C       59.667      61.132     193.795
  O       60.877      61.068     193.024
  C       58.423      61.167     192.879
  N       57.433      62.148     193.324
  C       56.999      63.045     192.357
  O       57.404      63.037     191.194
  N       56.101      63.991     192.778
  C       55.640      64.141     194.054
  O       54.893      65.057     194.388
  C       56.130      63.154     195.034
  C       56.998      62.226     194.638
  O       55.396      58.083     196.947
  O       56.214      55.910     195.851
  H       54.742      57.450     197.299
  H       60.878      61.857     192.450
  H       55.782      64.656     192.092
  H       55.778      63.245     196.053
  H       57.388      61.496     195.337
  H       58.713      61.426     191.851
  H       59.754      62.007     194.440
  H       58.742      60.070     195.412
  H       59.541      58.587     192.845
  H       57.550      57.228     193.321
  H       58.708      57.110     194.669
  P       60.599      58.414     196.420
  C       62.314      59.904     197.746
  O       61.994      58.640     197.184
  O       60.728      56.941     195.806
  O       59.383      58.645     197.254
  H       61.315      56.898     195.031
  H       63.278      59.855     198.208
  H       61.579      60.165     198.479
  H       62.326      60.645     196.974

 6  7  8  9  10  11  12  13  14  15  16  27  31  32  33  34  35 0
 6-311+G(2d,p)
 ****
 36  37 0
 6-311+G(2d,p)
 ****
 1  2  3  4  5  17  18  19  20  21  22  23  24  25 0
 3-21G
 ****
 26  28  29  30  38  39  40  41  42  43  44  45 0
 3-21G
 ****


