%nproc=1
%NoSave
%Mem=1900MB
#P OB98/GEN NMR

erre ene a

0 1
  C       -7.028      45.451      93.548
  O       -7.244      44.062      93.737
  P       -7.180      43.099      92.459
  C       -9.751      43.123      92.065
  O       -8.462      43.414      91.546
  C      -10.792      43.137      90.944
  O      -10.923      44.496      90.425
  C      -10.447      42.226      89.756
  O      -11.680      41.713      89.231
  C       -9.835      43.198      88.764
  O       -9.835      42.710      87.432
  C      -10.731      44.420      88.997
  N      -10.160      45.655      88.462
  C      -10.082      45.777      87.078
  O      -10.461      44.913      86.288
  N       -9.485      46.918      86.614
  C       -8.891      47.884      87.374
  O       -8.270      48.824      86.892
  C       -9.005      47.702      88.830
  C       -9.624      46.615      89.300
  O       -7.495      41.655      93.072
  O       -5.881      43.123      91.724
  H       -9.743      43.478      86.837
  H       -6.670      41.150      93.196
  H       -9.431      47.029      85.613
  H       -8.563      48.460      89.465
  H       -9.704      46.446      90.369
  H      -11.720      44.253      88.550
  H       -8.797      43.404      89.048
  H       -9.772      41.404      90.016
  H      -11.766      42.858      91.368
  H      -10.015      43.875      92.811
  H       -9.734      42.147      92.563
  P      -11.623      40.367      88.355
  C      -11.823      41.387      85.956
  O      -11.011      40.772      86.931
  O      -13.181      40.141      88.053
  O      -10.977      39.219      89.059
  H      -13.639      40.963      87.814
  H      -12.569      42.044      86.410
  H      -12.328      40.618      85.367
  H      -11.191      41.980      85.289
  H       -7.103      45.955      94.489
  H       -7.765      45.838      92.876
  H       -6.053      45.608      93.136

 3  4  5  6  7  8  9  10  11  12  13  23  28  29  30  31  32 0
 6-311+G(2d,p)
 ****
 33  34 0
 6-311+G(2d,p)
 ****
 1  2  14  15  16  17  18  19  20  21  22  24  25  26 0
 3-21G
 ****
 27  35  36  37  38  39  40  41  42  43  44  45 0
 3-21G
 ****


