%nproc=1
%NoSave
%Mem=1900MB
#P OB98/GEN NMR

erre ene a

0 1
  C     -461.013     997.662     487.840
  O     -459.829     996.908     487.689
  H     -460.799     998.536     488.464
  H     -461.777     997.059     488.338
  H     -461.383     998.002     486.867
  P     -459.871     995.657     486.681
  C     -460.265     995.508     484.117
  O     -459.733     996.261     485.199
  C     -460.060     996.251     482.796
  O     -460.738     997.535     482.872
  C     -458.592     996.511     482.459
  O     -458.410     996.358     481.052
  C     -458.386     997.974     482.840
  O     -457.320     998.580     482.117
  C     -459.778     998.562     482.552
  N     -460.009     999.783     483.317
  C     -459.488    1000.969     482.782
  O     -458.860    1000.942     481.720
  N     -459.640    1002.135     483.486
  C     -460.191    1002.106     484.661
  N     -460.272    1003.298     485.320
  C     -460.686    1000.875     485.297
  C     -460.579     999.758     484.571
  O     -461.398     995.180     486.742
  O     -458.920     994.553     486.995
  H     -457.525     998.529     481.158
  H     -461.476     994.219     486.611
  H     -461.114    1000.903     486.289
  H     -460.917     998.803     484.956
  H     -459.887     998.791     481.480
  H     -458.161     998.045     483.910
  H     -457.899     995.849     482.992
  H     -460.551     995.678     481.999
  H     -459.906    1004.120     484.862
  H     -461.341     995.363     484.285
  H     -460.644    1003.391     486.258
  H     -459.778     994.521     484.081
  P     -457.649     995.027     480.567
  C     -458.304     992.610     479.886
  O     -458.754     993.901     480.257
  O     -456.931     994.509     481.894
  O     -456.668     995.269     479.463
  H     -455.963     994.651     481.831
  H     -459.147     991.974     479.713
  H     -457.705     992.201     480.673
  H     -457.720     992.679     478.992

 6  7  8  9  10  11  12  13  14  15  16  26  30  31  32  33  35 0
 6-311+G(2d,p)
 ****
 37  38 0
 6-311+G(2d,p)
 ****
 1  2  3  4  5  17  18  19  20  21  22  23  24  25 0
 3-21G
 ****
 27  28  29  34  36  39  40  41  42  43  44  45  46 0
 3-21G
 ****


