%nproc=1
%NoSave
%Mem=1900MB
#P OB98/GEN NMR

erre ene a

0 1
  C     -275.461     131.514     150.562
  O     -274.086     131.170     150.554
  P     -273.278     131.053     149.181
  C     -273.832     128.533     148.694
  O     -273.929     129.886     148.309
  C     -274.416     127.655     147.579
  O     -275.800     127.988     147.360
  C     -273.668     127.852     146.262
  O     -272.655     126.870     146.110
  C     -274.777     127.743     145.233
  O     -275.075     126.360     144.958
  C     -275.960     128.407     145.977
  N     -276.058     129.878     145.955
  C     -276.109     130.549     144.734
  O     -276.112     129.982     143.646
  N     -276.134     131.919     144.810
  C     -276.158     132.656     145.960
  O     -275.939     133.860     146.015
  C     -276.377     131.893     147.192
  C     -276.292     130.565     147.139
  O     -271.876     130.432     149.639
  O     -273.105     132.329     148.426
  H     -275.411     125.971     145.786
  H     -271.202     131.131     149.726
  H     -276.032     132.412     143.928
  H     -276.541     132.441     148.111
  H     -276.411     129.980     148.048
  H     -276.918     128.015     145.618
  H     -274.480     128.184     144.283
  H     -273.244     128.863     146.213
  H     -274.365     126.604     147.891
  H     -274.372     128.367     149.632
  H     -272.784     128.267     148.875
  P     -271.134     127.329     145.907
  C     -270.901     126.763     143.417
  O     -271.037     127.793     144.375
  O     -270.103     126.344     146.346
  O     -271.049     128.693     146.740
  H     -270.668     128.520     147.624
  H     -271.023     127.192     142.419
  H     -271.661     125.992     143.572
  H     -269.903     126.321     143.491
  H     -275.816     131.540     151.571
  H     -276.014     130.785     150.008
  H     -275.590     132.477     150.113

 3  4  5  6  7  8  9  10  11  12  13  23  28  29  30  31  32 0
 6-311+G(2d,p)
 ****
 33  34 0
 6-311+G(2d,p)
 ****
 1  2  14  15  16  17  18  19  20  21  22  24  25  26  27 0
 3-21G
 ****
 35  36  37  38  39  40  41  42  43  44  45 0
 3-21G
 ****


