%nproc=1
%NoSave
%Mem=1900MB
#P OB98/GEN NMR

erre ene a

0 1
  C      225.386    -225.577     367.547
  O      226.709    -225.551     368.051
  H      224.751    -224.970     368.195
  H      225.010    -226.602     367.537
  H      225.357    -225.163     366.535
  P      227.810    -226.355     367.206
  C      228.697    -228.808     367.258
  O      227.717    -227.879     367.702
  C      228.864    -229.933     368.285
  O      229.329    -229.353     369.540
  C      227.553    -230.678     368.600
  O      227.873    -232.034     368.952
  C      227.066    -229.944     369.837
  O      226.085    -230.699     370.507
  C      228.391    -229.754     370.560
  N      226.813    -228.852     375.327
  C      226.819    -229.974     374.573
  N      227.267    -230.132     373.310
  C      227.773    -228.980     372.843
  C      227.838    -227.762     373.491
  C      227.320    -227.715     374.792
  N      227.290    -226.570     375.556
  N      228.409    -226.803     372.668
  C      228.688    -227.444     371.547
  N      228.326    -228.760     371.609
  O      229.193    -225.837     367.825
  O      227.756    -226.171     365.728
  H      226.387    -231.619     370.653
  H      229.528    -225.083     367.308
  H      226.406    -230.861     375.046
  H      229.140    -227.005     370.667
  H      228.762    -230.683     371.010
  H      226.617    -228.982     369.570
  H      226.842    -230.673     367.773
  H      229.643    -230.622     367.945
  H      229.644    -228.276     367.128
  H      228.385    -229.234     366.300
  H      226.876    -226.615     376.472
  H      227.633    -225.702     375.160
  P      227.074    -233.238     368.241
  C      225.440    -235.146     368.943
  O      226.032    -233.897     369.267
  O      228.204    -234.370     368.127
  O      226.522    -232.923     366.886
  H      228.189    -234.759     367.238
  H      224.775    -235.440     369.728
  H      226.206    -235.885     368.828
  H      224.893    -235.055     368.028

 6  7  8  9  10  11  12  13  14  15  25  28  32  33  34  35 0
 6-311+G(2d,p)
 ****
 36  37  40 0
 6-311+G(2d,p)
 ****
 1  2  3  4  5  16  17  18  19  20  21  22  23  24 0
 3-21G
 ****
 26  27  29  30  31  38  39 41  42  43  44  45  46  47  48 0
 3-21G
 ****


