%nproc=1
%NoSave
%Mem=1900MB
#P OB98/GEN NMR

erre ene a

0 1
  C     -575.776    -503.364     -89.227
  O     -575.807    -503.370     -90.649
  P     -575.364    -504.733     -91.396
  C     -573.129    -506.024     -91.682
  O     -573.808    -504.926     -91.085
  C     -571.681    -505.651     -91.989
  O     -570.942    -505.417     -90.774
  C     -570.903    -506.738     -92.733
  O     -571.168    -506.728     -94.122
  C     -569.468    -506.298     -92.455
  O     -569.099    -505.235     -93.357
  C     -569.563    -505.789     -91.015
  N     -567.844    -506.475     -86.296
  C     -568.361    -505.339     -86.895
  N     -568.360    -504.213     -86.144
  N     -568.846    -505.306     -88.119
  C     -568.750    -506.504     -88.750
  C     -568.281    -507.702     -88.262
  C     -567.745    -507.715     -86.916
  O     -567.231    -508.677     -86.356
  N     -568.366    -508.698     -89.204
  C     -568.927    -508.114     -90.253
  N     -569.139    -506.776     -90.037
  O     -575.387    -504.318     -92.943
  O     -576.236    -505.913     -91.114
  H     -569.180    -505.598     -94.261
  H     -575.399    -505.117     -93.498
  H     -567.498    -506.441     -85.363
  H     -569.155    -508.613     -91.182
  H     -568.955    -504.884     -90.858
  H     -568.750    -507.112     -92.609
  H     -567.959    -504.157     -85.224
  H     -571.083    -507.722     -92.284
  H     -568.682    -503.348     -86.573
  H     -571.684    -504.721     -92.569
  H     -573.641    -506.302     -92.601
  H     -573.163    -506.878     -90.993
  P     -571.127    -508.153     -94.871
  C     -569.167    -509.666     -95.639
  O     -569.595    -508.372     -95.280
  O     -571.872    -507.856     -96.260
  O     -571.780    -509.261     -94.109
  H     -572.264    -508.662     -96.621
  H     -568.191    -509.594     -96.141
  H     -569.877    -510.132     -96.334
  H     -569.064    -510.302     -94.754
  H     -576.091    -502.407     -88.867
  H     -574.779    -503.561     -88.891
  H     -576.434    -504.120     -88.853

 3  4  5  6  7  8  9  10  11  12  23  26  30  31 0
 6-311+G(2d,p)
 ****
 33  35  36  37  38 0
 6-311+G(2d,p)
 ****
 1  2  13  14  15  16  17  18  19  20  21  22  24  25 0
 3-21G
 ****
 27  28  29  32  34  39  40  41  42  43  44  45  46  47  48  49 0
 3-21G
 ****


