%nproc=1
%NoSave
%Mem=1900MB
#P OB98/GEN NMR

erre ene a

0 1
  C      -55.397    -207.689    -251.758
  O      -56.185    -206.901    -252.634
  P      -56.145    -205.309    -252.472
  C      -54.328    -205.047    -254.314
  O      -54.703    -204.806    -252.965
  C      -53.818    -203.755    -254.960
  O      -54.854    -202.729    -254.872
  C      -52.555    -203.185    -254.307
  O      -51.776    -202.565    -255.342
  C      -53.113    -202.117    -253.384
  O      -52.150    -201.150    -252.997
  C      -54.249    -201.577    -254.259
  N      -55.225    -200.793    -253.498
  C      -55.049    -199.415    -253.465
  O      -54.126    -198.824    -254.025
  N      -55.941    -198.720    -252.694
  C      -56.915    -199.258    -251.904
  O      -57.606    -198.587    -251.147
  C      -57.058    -200.723    -251.982
  C      -56.217    -201.409    -252.764
  O      -56.097    -205.100    -250.885
  O      -57.297    -204.591    -253.093
  H      -52.605    -200.478    -252.463
  H      -56.984    -204.876    -250.545
  H      -55.836    -197.714    -252.665
  H      -57.831    -201.184    -251.385
  H      -56.290    -202.490    -252.821
  H      -53.842    -200.960    -255.066
  H      -53.500    -202.591    -252.474
  H      -51.954    -203.931    -253.778
  H      -53.646    -203.946    -256.027
  H      -55.192    -205.408    -254.870
  H      -53.558    -205.825    -254.345
  P      -50.179    -202.523    -255.163
  C      -49.140    -204.751    -256.044
  O      -49.701    -204.037    -254.966
  O      -50.062    -201.883    -253.697
  O      -49.478    -201.730    -256.216
  H      -50.701    -202.260    -253.068
  H      -48.559    -204.102    -256.701
  H      -49.939    -205.222    -256.618
  H      -48.485    -205.533    -255.648
  H      -55.531    -208.725    -251.992
  H      -55.699    -207.509    -250.747
  H      -54.366    -207.428    -251.874

 3  4  5  6  7  8  9  10  11  12  13  23  28  29  30  31  32 0
 6-311+G(2d,p)
 ****
 33  34 0
 6-311+G(2d,p)
 ****
 1  2  14  15  16  17  18  19  20  21  22  24  25  26 0
 3-21G
 ****
 27  35  36  37  38  39  40  41  42  43  44  45 0
 3-21G
 ****


