%nproc=1
%NoSave
%Mem=1900MB
#P OB98/GEN NMR

erre ene a

0 1
  C      534.518     271.383     -61.945
  O      534.509     271.184     -60.543
  P      535.590     270.174     -59.926
  C      536.560     271.521     -57.924
  O      535.679     270.488     -58.358
  C      536.425     271.770     -56.416
  O      535.156     272.419     -56.155
  C      536.482     270.509     -55.565
  O      537.195     270.819     -54.357
  C      535.026     270.230     -55.229
  O      534.893     269.464     -54.037
  C      534.472     271.659     -55.147
  N      533.023     271.705     -55.336
  C      532.219     271.338     -54.249
  O      532.752     270.928     -53.207
  N      530.857     271.392     -54.375
  C      530.325     271.680     -55.521
  N      528.970     271.721     -55.604
  C      531.133     271.949     -56.739
  C      532.456     271.961     -56.568
  O      536.986     270.745     -60.496
  O      535.388     268.735     -60.295
  H      535.395     269.916     -53.318
  H      537.625     270.023     -60.646
  H      530.638     272.137     -57.684
  H      533.132     272.175     -57.408
  H      534.692     272.113     -54.174
  H      534.553     269.667     -56.055
  H      536.982     269.668     -56.071
  H      537.216     272.474     -56.118
  H      528.441     271.522     -54.761
  H      536.298     272.447     -58.450
  H      528.474     271.933     -56.459
  H      537.583     271.248     -58.183
  P      538.767     270.511     -54.292
  C      538.792     271.038     -51.779
  O      539.043     270.070     -52.783
  O      539.361     272.010     -54.313
  O      539.372     269.691     -55.384
  H      540.343     271.966     -54.334
  H      538.898     270.559     -50.799
  H      537.789     271.444     -51.881
  H      539.532     271.865     -51.851
  H      533.748     272.077     -62.212
  H      534.344     270.450     -62.439
  H      535.469     271.773     -62.244

 3  4  5  6  7  8  9  10  11  12  13  21  23  27  28  29  30  32 0
 6-311+G(2d,p)
 ****
 34  35 0
 6-311+G(2d,p)
 ****
 1  2  14  15  16  17  18  19  20  22  24  25  26 0
 3-21G
 ****
 31  33  36  37  38  39  40  41  42  43  44  45  46 0
 3-21G
 ****


