%nproc=1
%NoSave
%Mem=1900MB
#P OB98/GEN NMR

erre ene a

0 1
  C       52.536       0.615    -106.758
  O       51.292       0.222    -106.176
  P       51.245      -1.222    -105.477
  C       49.813      -0.303    -103.522
  O       49.949      -1.291    -104.532
  C       48.762      -0.697    -102.477
  O       47.420      -0.551    -103.009
  C       48.900      -2.139    -101.985
  O       48.507      -2.163    -100.610
  C       47.861      -2.881    -102.801
  O       47.497      -4.111    -102.181
  C       46.748      -1.822    -102.872
  N       45.803      -2.054    -103.961
  C       45.071      -3.243    -103.925
  O       45.285      -4.076    -103.041
  N       44.146      -3.483    -104.908
  C       44.003      -2.633    -105.877
  N       43.072      -2.929    -106.826
  C       44.796      -1.393    -105.989
  C       45.663      -1.171    -105.005
  O       52.466      -1.175    -104.445
  O       51.388      -2.356    -106.440
  H       46.702      -4.458    -102.640
  H       53.021      -1.970    -104.547
  H       44.656      -0.724    -106.825
  H       46.288      -0.289    -104.997
  H       46.180      -1.799    -101.934
  H       48.250      -3.097    -103.804
  H       49.914      -2.539    -102.085
  H       48.853      -0.008    -101.627
  H       42.541      -3.785    -106.709
  H       49.526       0.650    -103.972
  H       42.879      -2.341    -107.621
  H       50.788      -0.136    -103.054
  P       49.652      -2.222     -99.492
  C       48.595      -0.200     -98.310
  O       48.989      -1.554     -98.192
  O       50.638      -1.052     -99.980
  O       50.388      -3.502     -99.291
  H       51.428      -1.030     -99.410
  H       48.054       0.087     -97.406
  H       47.937      -0.068     -99.173
  H       49.477       0.439     -98.408
  H       52.436       1.590    -107.188
  H       52.810      -0.085    -107.520
  H       53.293       0.634    -106.002

 3  4  5  6  7  8  9  10  11  12  13  21  23  27  28  29  30  32 0
 6-311+G(2d,p)
 ****
 34  35 0
 6-311+G(2d,p)
 ****
 1  2  14  15  16  17  18  19  20  22  24  25  26 0
 3-21G
 ****
 31  33  36  37  38  39  40  41  42  43  44  45  46 0
 3-21G
 ****


