%nproc=1
%NoSave
%Mem=1900MB
#P OB98/GEN NMR

erre ene a

0 1
  C       35.732    -255.735    -150.102
  O       37.024    -256.289    -149.824
  P       37.603    -256.036    -148.345
  C       38.996    -253.906    -148.865
  O       37.879    -254.461    -148.180
  C       39.549    -252.671    -148.146
  O       38.497    -251.683    -148.017
  C       40.091    -252.936    -146.735
  O       41.240    -252.107    -146.522
  C       38.984    -252.420    -145.834
  O       39.458    -252.090    -144.533
  C       38.492    -251.230    -146.654
  N       35.797    -248.608    -143.270
  C       37.166    -248.739    -143.400
  N       37.922    -248.095    -142.482
  N       37.743    -249.434    -144.344
  C       36.865    -249.995    -145.210
  C       35.488    -249.932    -145.195
  C       34.864    -249.190    -144.117
  O       33.654    -249.082    -143.920
  N       34.943    -250.631    -146.243
  C       35.983    -251.124    -146.881
  N       37.172    -250.772    -146.291
  O       39.064    -256.685    -148.409
  O       36.779    -256.655    -147.264
  H       39.953    -252.863    -144.201
  H       39.160    -257.359    -147.710
  H       35.405    -248.077    -142.511
  H       35.936    -251.757    -147.759
  H       39.182    -250.379    -146.576
  H       38.208    -253.188    -145.731
  H       37.545    -247.491    -141.769
  H       40.342    -253.982    -146.538
  H       38.930    -248.141    -142.585
  H       40.332    -252.233    -148.775
  H       38.698    -253.628    -149.877
  H       39.772    -254.673    -148.946
  P       42.670    -252.771    -146.840
  C       42.693    -254.045    -144.572
  O       42.720    -254.125    -145.984
  O       43.699    -251.803    -146.086
  O       42.972    -252.901    -148.296
  H       44.572    -251.830    -146.524
  H       42.441    -253.042    -144.217
  H       43.679    -254.317    -144.183
  H       41.953    -254.753    -144.193
  H       35.454    -255.966    -151.109
  H       35.765    -254.673    -149.976
  H       35.013    -256.152    -149.429

 3  4  5  6  7  8  9  10  11  12  23  26  30  31  33  0
 6-311+G(2d,p)
 ****
 35  36  37  38 0
 6-311+G(2d,p)
 ****
 1  2  13  14  15  16  17  18  19  20  21  22  24  25  27  28  29 0
 3-21G
 ****
 32  34  39  40  41  42  43  44  45  46  47  48  49 0
 3-21G
 ****


