%nproc=1
%NoSave
%Mem=1900MB
#P OB98/GEN NMR

erre ene a

0 1
  C      434.549    -288.075    -664.948
  O      435.118    -288.871    -665.976
  P      436.590    -289.462    -665.712
  C      436.289    -291.810    -666.821
  O      436.440    -291.066    -665.613
  C      435.359    -293.002    -666.591
  O      433.996    -292.549    -666.423
  C      435.317    -294.004    -667.742
  O      436.480    -294.815    -667.750
  C      434.028    -294.750    -667.403
  O      434.254    -295.706    -666.359
  C      433.122    -293.612    -666.892
  N      429.349    -294.779    -670.167
  C      430.061    -295.533    -669.294
  N      431.060    -295.154    -668.466
  C      431.317    -293.837    -668.603
  C      430.692    -292.945    -669.460
  C      429.659    -293.457    -670.266
  N      428.951    -292.677    -671.164
  N      431.236    -291.683    -669.338
  C      432.163    -291.809    -668.404
  N      432.239    -293.089    -667.924
  O      436.895    -289.034    -664.205
  O      437.644    -288.977    -666.658
  H      434.989    -296.282    -666.639
  H      437.848    -288.849    -664.075
  H      429.789    -296.585    -669.255
  H      432.792    -291.009    -668.045
  H      432.491    -293.924    -666.046
  H      433.606    -295.290    -668.263
  H      435.212    -293.493    -668.693
  H      435.670    -293.497    -665.658
  H      437.266    -292.178    -667.145
  H      428.334    -293.156    -671.808
  H      429.271    -291.742    -671.343
  H      435.887    -291.151    -667.605
  P      437.372    -294.806    -669.084
  C      439.579    -295.080    -667.781
  O      438.787    -294.213    -668.595
  O      436.734    -293.578    -669.886
  O      437.428    -296.102    -669.817
  H      436.639    -292.783    -669.324
  H      440.525    -294.577    -667.564
  H      439.789    -296.017    -668.318
  H      439.061    -295.285    -666.845
  H      433.576    -287.747    -665.248
  H      435.173    -287.224    -664.769
  H      434.470    -288.654    -664.051

 3  4  5  6  7  8  9  10  11  12  22  25  29  30  31  32 0
 6-311+G(2d,p)
 ****
 33  36  37 0
 6-311+G(2d,p)
 ****
 1  2  13  14  15  16  17  18  19  20  21  23  24  26 0
 3-21G
 ****
 27  28  34  35  38  39  40  41  42  43  44  45  46  47  48 0
 3-21G
 ****


