%nproc=1
%NoSave
%Mem=1900MB
#P OB98/GEN NMR

erre ene a

0 1
  C      490.603     455.244     686.646
  O      490.258     454.575     687.866
  P      491.249     454.506     689.120
  C      491.148     451.941     689.414
  O      491.975     453.066     689.125
  C      491.905     450.851     690.156
  O      493.112     450.464     689.435
  C      492.385     451.251     691.560
  O      491.326     451.178     692.481
  C      493.511     450.247     691.794
  O      492.981     448.981     692.220
  C      494.138     450.119     690.380
  N      499.246     450.272     690.545
  C      498.357     449.255     690.733
  N      497.007     449.306     690.687
  C      496.589     450.541     690.364
  C      497.365     451.662     690.125
  C      498.766     451.491     690.227
  N      499.665     452.518     690.035
  N      496.587     452.761     689.844
  C      495.347     452.292     689.892
  N      495.298     450.963     690.200
  O      490.631     454.865     690.422
  O      492.442     455.515     688.754
  H      493.721     448.340     692.231
  H      492.827     455.866     689.572
  H      498.792     448.295     690.983
  H      494.458     452.894     689.708
  H      494.430     449.091     690.166
  H      494.221     450.577     692.559
  H      492.805     452.256     691.537
  H      491.268     449.961     690.226
  H      490.763     451.532     688.467
  H      500.639     452.327     690.155
  H      499.312     453.453     689.856
  H      490.300     452.277     690.012
  P      490.535     452.504     692.911
  C      491.108     452.513     695.414
  O      491.323     453.136     694.161
  O      489.063     452.357     693.094
  O      490.875     453.539     691.736
  H      490.128     454.167     691.626
  H      490.163     452.849     695.842
  H      491.924     452.791     696.083
  H      491.103     451.421     695.317
  H      489.792     455.161     685.952
  H      491.478     454.793     686.227
  H      490.796     456.277     686.848

 3  4  5  6  7  8  9  10  11  12  22  25  29  30  31  32 0
 6-311+G(2d,p)
 ****
 33  36  37 0
 6-311+G(2d,p)
 ****
 1  2  13  14  15  16  17  18  19  20  21  23  24  26 0
 3-21G
 ****
 27  28  34  35  38  39  40  41  42  43  44  45  46  47  48 0
 3-21G
 ****


