%nproc=1
%NoSave
%Mem=1900MB
#P OB98/GEN NMR

erre ene a

0 1
  C       69.838     119.273     -98.114
  O       70.630     118.405     -98.892
  P       72.210     118.299     -98.644
  C       72.273     116.634     -96.681
  O       72.479     116.820     -98.078
  C       72.217     115.145     -96.353
  O       71.051     114.522     -96.950
  C       73.390     114.344     -96.899
  O       74.666     114.612     -96.362
  C       72.866     112.923     -96.766
  O       73.020     112.434     -95.434
  C       71.365     113.115     -97.102
  N       71.039     112.628     -98.440
  C       70.700     111.283     -98.532
  O       70.666     110.521     -97.567
  N       70.426     110.821     -99.791
  C       70.502     111.545    -100.944
  O       70.287     111.055    -102.046
  C       70.882     112.956    -100.786
  C       71.130     113.428     -99.561
  O       72.798     119.394     -97.819
  O       72.810     118.207    -100.126
  H       72.767     111.491     -95.437
  H       72.497     117.446    -100.645
  H       70.191     109.846     -99.882
  H       70.939     113.561    -101.681
  H       71.414     114.466     -99.420
  H       70.741     112.574     -96.380
  H       73.397     112.231     -97.427
  H       73.474     114.554     -97.973
  H       72.122     115.036     -95.270
  H       71.323     117.098     -96.398
  H       73.071     117.136     -96.125
  P       76.029     114.116     -97.039
  C       76.863     116.495     -97.642
  O       77.105     115.299     -96.933
  O       75.910     113.411     -98.349
  O       76.573     113.079     -95.938
  H       77.078     112.375     -96.388
  H       77.713     117.167     -97.493
  H       75.960     116.985     -97.267
  H       76.763     116.294     -98.711
  H       68.818     119.202     -98.428
  H       70.181     120.279     -98.240
  H       69.914     118.997     -97.083

 3  4  5  6  7  8  9  10  11  12  13  23  28  29  30  31  32 0
 6-311+G(2d,p)
 ****
 33  34 0
 6-311+G(2d,p)
 ****
 1  2  14  15  16  17  18  19  20  21  22  24  25  26  27 0
 3-21G
 ****
 35  36  37  38  39  40  41  42  43  44  45 0
 3-21G
 ****


