%nproc=1
%NoSave
%Mem=1900MB
#P OB98/GEN NMR

erre ene a

0 1
  C     -431.028     -75.988     185.820
  O     -430.769     -75.667     184.454
  P     -431.244     -74.328     183.723
  C     -431.257     -75.425     181.340
  O     -430.771     -74.400     182.195
  C     -430.682     -75.362     179.912
  O     -430.765     -74.001     179.417
  C     -429.190     -75.716     179.938
  O     -428.779     -77.080     179.921
  C     -428.576     -74.872     178.834
  O     -428.491     -75.585     177.581
  C     -429.546     -73.702     178.706
  N     -426.091     -69.972     178.035
  C     -426.267     -71.140     177.316
  N     -425.376     -71.380     176.324
  N     -427.214     -72.010     177.579
  C     -427.980     -71.690     178.645
  C     -427.889     -70.573     179.452
  C     -426.879     -69.597     179.129
  O     -426.686     -68.532     179.721
  N     -428.818     -70.599     180.450
  C     -429.451     -71.757     180.275
  N     -428.972     -72.451     179.183
  O     -430.972     -73.062     184.463
  O     -432.850     -74.512     183.635
  H     -428.079     -74.994     176.934
  H     -433.231     -73.616     183.707
  H     -425.359     -69.332     177.793
  H     -430.250     -72.119     180.906
  H     -429.842     -73.528     177.654
  H     -427.555     -74.582     179.086
  H     -424.564     -70.813     176.161
  H     -428.763     -75.320     180.875
  H     -425.370     -72.327     175.941
  H     -431.266     -75.981     179.220
  H     -432.360     -75.322     181.309
  H     -431.064     -76.408     181.778
  P     -429.117     -78.189     181.017
  C     -426.858     -79.260     180.469
  O     -428.231     -79.483     180.699
  O     -430.616     -78.671     180.633
  O     -429.079     -77.716     182.436
  H     -431.014     -79.156     181.372
  H     -426.440     -80.147     179.970
  H     -426.351     -79.110     181.412
  H     -426.707     -78.390     179.822
  H     -430.599     -76.941     186.050
  H     -432.085     -76.024     185.984
  H     -430.594     -75.240     186.451

 3  4  5  6  7  8  9  10  11  12  23  26  30  31 0
 6-311+G(2d,p)
 ****
 33  35  36  37  38 0
 6-311+G(2d,p)
 ****
 1  2  13  14  15  16  17  18  19  20  21  22  24  25 0
 3-21G
 ****
 27  28  29  32  34  39  40  41  42  43  44  45  46  47  48  49 0
 3-21G
 ****


