%nproc=1
%NoSave
%Mem=1900MB
#P OB98/GEN NMR

erre ene a

0 1
  C       88.241     -48.841    -111.894
  O       87.610     -48.078    -112.907
  P       86.476     -48.714    -113.842
  C       84.846     -46.696    -113.437
  O       85.522     -47.543    -114.345
  C       84.738     -45.291    -114.059
  O       86.053     -44.713    -114.208
  C       84.084     -45.332    -115.434
  O       82.689     -45.075    -115.326
  C       84.840     -44.256    -116.193
  O       84.316     -42.956    -115.889
  C       86.266     -44.415    -115.614
  N       87.138     -45.467    -116.181
  C       87.392     -45.476    -117.549
  O       86.954     -44.638    -118.340
  N       88.157     -46.524    -118.000
  C       88.720     -47.500    -117.223
  O       89.191     -48.547    -117.657
  C       88.644     -47.273    -115.777
  C       87.850     -46.295    -115.330
  O       85.566     -49.515    -112.793
  O       86.971     -49.595    -114.941
  H       84.164     -42.919    -114.927
  H       85.797     -50.464    -112.795
  H       88.236     -46.618    -119.013
  H       89.188     -47.937    -115.121
  H       87.747     -46.133    -114.257
  H       86.819     -43.467    -115.677
  H       84.722     -44.385    -117.262
  H       84.270     -46.299    -115.914
  H       84.166     -44.647    -113.376
  H       85.389     -46.654    -112.493
  H       83.845     -47.089    -113.232
  P       81.730     -45.376    -116.579
  C       79.814     -46.750    -115.563
  O       80.250     -45.461    -115.974
  O       82.137     -46.528    -117.436
  O       81.746     -43.993    -117.394
  H       82.390     -44.053    -118.128
  H       78.879     -46.642    -115.005
  H       80.561     -47.222    -114.922
  H       79.643     -47.370    -116.447
  H       88.963     -48.234    -111.388
  H       88.730     -49.684    -112.335
  H       87.507     -49.181    -111.194

 3  4  5  6  7  8  9  10  11  12  13  23  28  29  30  31  32 0
 6-311+G(2d,p)
 ****
 33  34 0
 6-311+G(2d,p)
 ****
 1  2  14  15  16  17  18  19  20  21  22  24  25  26  27 0
 3-21G
 ****
 35  36  37  38  39  40  41  42  43  44  45 0
 3-21G
 ****


