%nproc=1
%NoSave
%Mem=1900MB
#P OB98/GEN NMR

erre ene a

0 1
  C     -840.874    -317.671     230.518
  O     -841.664    -318.417     231.414
  H     -839.906    -317.476     230.998
  H     -841.347    -316.710     230.297
  H     -840.702    -318.236     229.597
  P     -843.212    -318.683     231.053
  C     -844.354    -317.431     232.978
  O     -843.995    -317.389     231.598
  C     -845.374    -316.341     233.332
  O     -846.557    -316.498     232.501
  C     -845.835    -316.381     234.789
  O     -845.814    -315.049     235.333
  C     -847.280    -316.886     234.707
  O     -848.047    -316.484     235.831
  C     -847.696    -316.314     233.348
  N     -848.885    -316.978     232.810
  C     -850.042    -316.935     233.593
  O     -850.016    -316.402     234.712
  N     -851.184    -317.535     233.142
  C     -851.168    -318.169     231.999
  N     -852.335    -318.754     231.606
  C     -849.967    -318.274     231.153
  C     -848.867    -317.652     231.607
  O     -843.749    -319.993     231.527
  O     -843.286    -318.504     229.460
  H     -848.932    -316.917     235.778
  H     -844.100    -318.959     229.119
  H     -850.003    -318.813     230.214
  H     -847.942    -317.671     231.045
  H     -847.909    -315.242     233.412
  H     -847.272    -317.982     234.671
  H     -845.228    -317.025     235.429
  H     -844.940    -315.370     233.063
  H     -853.135    -318.650     232.218
  H     -843.448    -317.310     233.582
  H     -852.444    -319.277     230.747
  H     -844.794    -318.412     233.192
  P     -844.407    -314.555     235.929
  C     -845.188    -315.156     238.330
  O     -844.175    -315.289     237.343
  O     -844.685    -313.027     236.324
  O     -843.267    -314.675     234.963
  H     -844.331    -312.434     235.638
  H     -844.901    -315.692     239.211
  H     -846.107    -315.555     237.954
  H     -845.320    -314.121     238.569

 6  7  8  9  10  11  12  13  14  15  16  26  30  31  32  33  35 0
 6-311+G(2d,p)
 ****
 37  38 0
 6-311+G(2d,p)
 ****
 1  2  3  4  5  17  18  19  20  21  22  23  24  25 0
 3-21G
 ****
 27  28  29  34  36  39  40  41  42  43  44  45  46 0
 3-21G
 ****


