%nproc=1
%NoSave
%Mem=1900MB
#P OB98/GEN NMR

erre ene a

0 1
  C      105.642     130.773     -61.968
  O      105.581     131.186     -60.618
  H      104.634     130.616     -62.360
  H      106.129     131.556     -62.556
  H      106.223     129.851     -62.055
  P      104.864     130.186     -59.588
  C      102.445     130.041     -58.640
  O      103.310     130.587     -59.627
  C      101.196     130.909     -58.530
  O      101.543     132.216     -58.017
  C      100.501     131.158     -59.863
  O       99.656     130.087     -60.245
  C       99.697     132.404     -59.534
  O       98.540     132.047     -58.758
  C      100.693     133.196     -58.673
  N      101.181     137.996     -60.383
  C      100.259     137.412     -59.588
  N      100.212     136.133     -59.161
  C      101.259     135.437     -59.631
  C      102.280     135.898     -60.445
  C      102.215     137.247     -60.832
  N      103.134     137.839     -61.668
  N      103.167     134.880     -60.736
  C      102.696     133.831     -60.093
  N      101.527     134.109     -59.438
  O      105.335     130.716     -58.152
  O      105.134     128.734     -59.793
  H       98.165     132.877     -58.407
  H      105.142     130.051     -57.465
  H       99.451     138.055     -59.253
  H      103.156     132.851     -60.081
  H      100.200     133.786     -57.891
  H       99.339     132.923     -60.427
  H      101.222     131.397     -60.653
  H      100.513     130.440     -57.811
  H      102.968     130.024     -57.678
  H      102.921     138.764     -62.006
  H      103.821     137.257     -62.124
  H      102.171     129.020     -58.921
  P       99.727     129.595     -61.772
  C       97.893     129.079     -63.538
  O       98.269     129.840     -62.396
  O       99.807     128.004     -61.632
  O      100.871     130.154     -62.553
  H      100.332     127.617     -62.358
  H       96.902     129.350     -63.837
  H       97.920     128.037     -63.297
  H       98.574     129.277     -64.339

 6  7  8  9  10  11  12  13  14  15  25  28  32  33  34  35 0
 6-311+G(2d,p)
 ****
 36  39  40 0
 6-311+G(2d,p)
 ****
 1  2  3  4  5  16  17  18  19  20  21  22  23  24 0
 3-21G
 ****
 26  27  29  30  31  37  38  41  42  43  44  45  46  47 0
 3-21G
 ****
 48 0
 3-21G
 ****


