%nproc=1
%NoSave
%Mem=1900MB
#P OB98/GEN NMR

erre ene a

0 1
  C      190.643    -679.509    -835.079
  O      192.041    -679.667    -835.227
  P      192.808    -678.643    -836.197
  C      195.258    -679.292    -835.586
  O      194.233    -679.291    -836.580
  C      196.369    -680.274    -835.950
  O      195.855    -681.648    -835.843
  C      196.912    -680.100    -837.389
  O      198.315    -680.424    -837.382
  C      196.194    -681.181    -838.164
  O      196.924    -681.543    -839.347
  C      196.102    -682.296    -837.114
  N      194.831    -686.333    -839.870
  C      196.083    -685.794    -839.620
  N      197.109    -686.380    -840.286
  N      196.288    -684.814    -838.811
  C      195.164    -684.333    -838.227
  C      193.871    -684.797    -838.374
  C      193.648    -685.900    -839.277
  O      192.555    -686.409    -839.550
  N      192.985    -684.090    -837.594
  C      193.724    -683.150    -837.022
  N      195.049    -683.265    -837.397
  O      193.212    -677.430    -835.213
  O      191.991    -678.166    -837.355
  H      197.106    -680.715    -839.820
  H      192.612    -676.662    -835.387
  H      194.716    -687.108    -840.494
  H      193.371    -682.397    -836.330
  H      197.037    -682.849    -837.039
  H      195.223    -680.823    -838.456
  H      197.003    -687.113    -840.974
  H      196.764    -679.096    -837.800
  H      198.035    -685.964    -840.164
  H      197.161    -680.183    -835.204
  H      194.831    -679.562    -834.632
  H      195.677    -678.274    -835.498
  P      199.309    -679.257    -837.935
  C      201.378    -680.461    -836.926
  O      200.739    -679.930    -838.077
  O      199.446    -678.286    -836.670
  O      198.779    -678.553    -839.142
  H      199.667    -677.389    -836.968
  H      201.503    -681.536    -837.040
  H      200.832    -680.241    -836.003
  H      202.372    -679.971    -836.836
  H      190.269    -680.255    -834.409
  H      190.169    -679.616    -836.032
  H      190.434    -678.537    -834.684

 3  4  5  6  7  8  9  10  11  12  23  26  30  31 0
 6-311+G(2d,p)
 ****
 33  35  36  37  38 0
 6-311+G(2d,p)
 ****
 1  2  13  14  15  16  17  18  19  20  21  22  24  25 0
 3-21G
 ****
 27  28  29  32  34  39  40  41  42  43  44  45  46  47  48  49 0
 3-21G
 ****


