%nproc=1
%NoSave
%Mem=1900MB
#P OB98/GEN NMR

erre ene a

0 1
  C      -10.419     101.210      12.889
  O      -11.274     100.311      13.565
  H       -9.470     101.263      13.427
  H      -10.863     102.208      12.859
  H      -10.231     100.855      11.873
  P      -12.766     100.163      12.996
  C      -13.726     100.758      15.337
  O      -13.712      99.842      14.250
  C      -14.407     100.112      16.539
  O      -15.763      99.741      16.194
  C      -13.744      98.825      17.011
  O      -12.585      99.060      17.793
  C      -14.869      98.200      17.817
  O      -14.906      98.709      19.158
  C      -16.122      98.620      17.026
  N      -16.667      97.510      16.248
  C      -17.465      96.614      16.954
  O      -17.713      96.728      18.153
  N      -17.943      95.551      16.239
  C      -17.665      95.276      14.933
  O      -18.082      94.273      14.366
  C      -16.803      96.248      14.243
  C      -16.346      97.303      14.923
  O      -12.716      98.781      12.193
  O      -13.227     101.293      12.137
  H      -12.718      98.956      11.234
  H      -15.007      99.678      19.074
  H      -18.526      94.892      16.731
  H      -16.560      96.059      13.205
  H      -15.698      98.028      14.439
  H      -16.905      98.974      17.709
  H      -14.747      97.122      17.884
  H      -13.518      98.179      16.154
  H      -14.447     100.846      17.354
  H      -14.283     101.657      15.054
  H      -12.697     101.044      15.575
  P      -11.169      99.098      17.037
  C       -9.630      97.977      18.853
  O      -10.060      99.156      18.193
  O      -11.202     100.576      16.427
  O      -11.008      98.003      16.039
  H      -11.756     101.174      16.958
  H       -8.891      98.228      19.586
  H       -9.209      97.302      18.138
  H      -10.466      97.512      19.333

 6  7  8  9  10  11  12  13  14  15  16  27  31  32  33  34  35 0
 6-311+G(2d,p)
 ****
 36  37 0
 6-311+G(2d,p)
 ****
 1  2  3  4  5  17  18  19  20  21  22  23  24  25 0
 3-21G
 ****
 26  28  29  30  38  39  40  41  42  43  44  45 0
 3-21G
 ****


