%nproc=1
%NoSave
%Mem=1900MB
#P OB98/GEN NMR

erre ene a

0 1
  C     1064.647    -183.276     510.121
  O     1065.138    -183.800     508.903
  P     1064.103    -183.893     507.675
  C     1061.775    -185.069     507.404
  O     1062.992    -184.943     508.116
  C     1061.389    -186.523     507.236
  O     1061.318    -187.186     508.538
  C     1060.036    -186.780     506.586
  O     1060.059    -186.571     505.199
  C     1059.736    -188.206     507.029
  O     1060.459    -189.134     506.176
  C     1060.360    -188.223     508.445
  N     1059.314    -188.085     509.496
  C     1058.611    -189.244     509.807
  O     1058.768    -190.316     509.255
  N     1057.650    -189.109     510.779
  C     1057.302    -187.915     511.407
  O     1056.409    -187.848     512.242
  C     1058.068    -186.744     511.011
  C     1059.043    -186.872     510.096
  O     1065.005    -184.672     506.596
  O     1063.615    -182.559     507.206
  H     1065.686    -185.248     507.040
  H     1061.395    -189.021     506.406
  H     1057.137    -189.918     511.049
  H     1057.828    -185.807     511.475
  H     1059.602    -186.013     509.767
  H     1060.889    -189.180     508.601
  H     1058.667    -188.449     506.978
  H     1059.291    -186.088     507.041
  H     1062.183    -187.024     506.647
  H     1061.883    -184.582     506.420
  H     1060.977    -184.519     507.954
  P     1058.764    -185.876     504.528
  C     1056.196    -186.387     504.626
  O     1057.530    -186.835     504.845
  O     1059.041    -186.088     502.966
  O     1058.582    -184.446     504.924
  H     1059.395    -186.988     502.770
  H     1055.546    -187.252     504.564
  H     1056.117    -185.802     503.707
  H     1055.877    -185.768     505.477
  H     1065.432    -183.270     510.849
  H     1063.840    -183.885     510.472
  H     1064.298    -182.277     509.964

 3  4  5  6  7  8  9  10  11  12  13  24  28  29  30  31  32 0
 6-311+G(2d,p)
 ****
 33  34 0
 6-311+G(2d,p)
 ****
 1  2  14  15  16  17  18  19  20  21  22  23  25  26  27 0
 3-21G
 ****
 35  36  37  38  39  40  41  42  43  44  45 0
 3-21G
 ****


