%nproc=1
%NoSave
%Mem=1900MB
#P OB98/GEN NMR

erre ene a

0 1
  C       20.111     -70.252    -299.109
  O       19.897     -68.850    -299.115
  P       20.056     -67.981    -297.772
  C       17.494     -67.978    -297.442
  O       18.759     -68.329    -296.897
  C       16.391     -68.274    -296.428
  O       16.213     -69.702    -296.313
  C       16.681     -67.779    -295.018
  O       16.483     -66.376    -294.919
  C       15.716     -68.635    -294.206
  O       14.387     -68.095    -294.279
  C       15.775     -69.978    -294.962
  N       16.650     -70.954    -294.317
  C       16.019     -72.018    -293.661
  O       14.793     -72.119    -293.648
  N       16.800     -72.974    -293.060
  C       18.095     -72.866    -293.087
  N       18.818     -73.877    -292.536
  C       18.794     -71.733    -293.718
  C       18.019     -70.827    -294.312
  O       20.289     -66.526    -297.992
  O       21.225     -68.709    -296.961
  H       14.355     -67.338    -293.664
  H       22.128     -68.380    -297.190
  H       19.875     -71.681    -293.703
  H       18.457     -69.974    -294.814
  H       14.769     -70.409    -295.051
  H       15.988     -68.716    -293.150
  H       17.711     -68.015    -294.731
  H       15.454     -67.840    -296.803
  H       18.304     -74.714    -292.275
  H       17.321     -68.575    -298.343
  H       19.795     -74.014    -292.765
  H       17.499     -66.917    -297.718
  P       17.383     -65.571    -293.863
  C       15.565     -65.535    -292.013
  O       16.842     -65.999    -292.412
  O       16.896     -64.059    -294.039
  O       18.855     -65.723    -294.067
  H       17.536     -63.558    -294.581
  H       15.252     -66.098    -291.129
  H       14.829     -65.690    -292.806
  H       15.620     -64.476    -291.752
  H       19.957     -70.641    -300.094
  H       19.424     -70.715    -298.431
  H       21.114     -70.458    -298.797

 3  4  5  6  7  8  9  10  11  12  13  23  27  28  29  30  32 0
 6-311+G(2d,p)
 ****
 34  35 0
 6-311+G(2d,p)
 ****
 1  2  14  15  16  17  18  19  20  21  22  24  25  26 0
 3-21G
 ****
 31  33  36  37  38  39  40  41  42  43  44  45  46 0
 3-21G
 ****


