%nproc=1
%NoSave
%Mem=1900MB
#P OB98/GEN NMR

erre ene a

0 1
  C      -16.872     -18.185    -130.765
  O      -17.914     -17.210    -130.829
  P      -17.684     -15.879    -131.691
  C      -18.077     -16.291    -134.205
  O      -18.662     -15.915    -132.966
  C      -19.130     -16.312    -135.321
  O      -20.114     -17.359    -135.077
  C      -19.899     -14.988    -135.430
  O      -20.260     -14.725    -136.796
  C      -21.174     -15.274    -134.661
  O      -22.222     -14.376    -135.023
  C      -21.415     -16.734    -135.043
  N      -26.280     -17.653    -133.733
  C      -25.742     -16.976    -134.772
  N      -24.438     -16.793    -135.070
  C      -23.654     -17.408    -134.167
  C      -24.058     -18.143    -133.061
  C      -25.444     -18.250    -132.851
  N      -25.992     -18.914    -131.776
  N      -22.969     -18.621    -132.363
  C      -21.924     -18.142    -133.008
  N      -22.285     -17.433    -134.121
  O      -16.263     -15.542    -131.997
  O      -18.358     -14.743    -130.777
  H      -22.979     -14.556    -134.437
  H      -17.788     -13.950    -130.784
  H      -26.454     -16.516    -135.453
  H      -20.894     -18.266    -132.705
  H      -21.851     -16.825    -136.046
  H      -20.991     -15.171    -133.585
  H      -19.365     -14.117    -135.034
  H      -18.638     -16.551    -136.271
  H      -17.614     -17.275    -134.111
  H      -26.990     -18.840    -131.643
  H      -25.381     -19.234    -131.037
  H      -17.260     -15.597    -134.442
  P      -19.576     -13.431    -137.471
  C      -17.063     -14.139    -137.597
  O      -18.296     -13.978    -138.262
  O      -19.332     -12.316    -136.507
  O      -20.628     -13.066    -138.622
  H      -20.884     -13.811    -139.190
  H      -16.361     -14.639    -138.271
  H      -17.179     -14.754    -136.700
  H      -16.651     -13.163    -137.326
  H      -17.187     -19.004    -130.153
  H      -15.994     -17.742    -130.343
  H      -16.654     -18.539    -131.751

 3  4  5  6  7  8  9  10  11  12  22  25  29  30  31  32 0
 6-311+G(2d,p)
 ****
 33  36  37 0
 6-311+G(2d,p)
 ****
 1  2  13  14  15  16  17  18  19  20  21  23  24  26 0
 3-21G
 ****
 27  28  34  35  38  39  40  41  42  43  44  45  46  47  48 0
 3-21G
 ****


