%nproc=1
%NoSave
%Mem=1900MB
#P OB98/GEN NMR

erre ene a

0 1
  C     -193.496    -448.946    -509.409
  O     -194.104    -449.753    -510.397
  H     -192.758    -449.544    -508.871
  H     -194.250    -448.596    -508.700
  H     -192.990    -448.091    -509.868
  P     -195.052    -449.021    -511.463
  C     -193.061    -447.923    -512.725
  O     -194.169    -448.810    -512.789
  C     -192.612    -447.549    -514.139
  O     -191.545    -446.561    -514.038
  C     -192.069    -448.730    -514.955
  O     -192.453    -448.547    -516.323
  C     -190.566    -448.567    -514.833
  O     -189.832    -449.187    -515.884
  C     -190.438    -447.038    -514.831
  N     -189.162    -446.583    -514.285
  C     -188.016    -447.267    -514.677
  O     -187.989    -448.170    -515.512
  N     -186.854    -446.874    -514.060
  C     -186.735    -445.907    -513.108
  O     -185.667    -445.615    -512.583
  C     -187.981    -445.225    -512.729
  C     -189.120    -445.590    -513.326
  O     -195.188    -447.544    -510.867
  O     -196.376    -449.669    -511.697
  H     -195.950    -447.488    -510.262
  H     -190.145    -450.111    -515.951
  H     -186.017    -447.362    -514.333
  H     -187.926    -444.460    -511.966
  H     -190.061    -445.122    -513.052
  H     -190.566    -446.644    -515.843
  H     -190.220    -448.990    -513.884
  H     -192.404    -449.710    -514.601
  H     -193.447    -447.064    -514.656
  H     -192.232    -448.415    -512.209
  H     -193.348    -447.025    -512.166
  P     -193.349    -449.698    -516.995
  C     -195.651    -448.447    -516.889
  O     -194.581    -448.936    -517.684
  O     -193.987    -450.390    -515.700
  O     -192.569    -450.608    -517.881
  H     -194.177    -449.756    -514.985
  H     -196.374    -447.972    -517.518
  H     -195.274    -447.739    -516.181
  H     -196.111    -449.262    -516.369

 6  7  8  9  10  11  12  13  14  15  16  27  31  32  33  34  35 0
 6-311+G(2d,p)
 ****
 36  37 0
 6-311+G(2d,p)
 ****
 1  2  3  4  5  17  18  19  20  21  22  23  24  25 0
 3-21G
 ****
 26  28  29  30  38  39  40  41  42  43  44  45 0
 3-21G
 ****


