%nproc=1
%NoSave
%Mem=1900MB
#P OB98/GEN NMR

erre ene a

0 1
  C       33.148     -24.743     -13.717
  O       32.861     -23.408     -13.345
  H       34.096     -25.035     -13.260
  H       33.242     -24.826     -14.803
  H       32.365     -25.415     -13.357
  P       31.534     -22.724     -13.924
  C       32.928     -22.024     -15.982
  O       31.734     -22.637     -15.513
  C       32.666     -21.289     -17.294
  O       32.481     -22.229     -18.369
  C       31.422     -20.402     -17.279
  O       31.702     -19.158     -16.662
  C       31.158     -20.269     -18.769
  O       32.084     -19.325     -19.342
  C       31.478     -21.689     -19.274
  N       27.763     -23.637     -22.128
  C       28.656     -22.622     -22.410
  N       28.520     -22.021     -23.612
  N       29.589     -22.225     -21.585
  C       29.561     -22.867     -20.396
  C       28.715     -23.876     -19.992
  C       27.730     -24.352     -20.940
  O       26.935     -25.266     -20.739
  N       28.927     -24.216     -18.681
  C       29.936     -23.452     -18.308
  N       30.353     -22.607     -19.311
  O       31.134     -21.426     -13.291
  O       30.406     -23.847     -13.758
  H       31.955     -18.478     -18.877
  H       29.937     -23.752     -12.909
  H       27.060     -23.895     -22.800
  H       30.405     -23.471     -17.332
  H       31.913     -21.680     -20.279
  H       30.153     -19.910     -18.992
  H       27.734     -22.179     -24.224
  H       30.572     -20.911     -16.812
  H       29.129     -21.237     -23.812
  H       33.562     -20.701     -17.533
  H       33.669     -22.816     -16.130
  H       33.314     -21.320     -15.238
  P       30.587     -18.369     -15.815
  C       30.345     -16.629     -17.713
  O       29.699     -17.594     -16.901
  O       31.122     -17.512     -14.721
  O       29.586     -19.511     -15.322
  H       29.882     -19.949     -14.484
  H       29.635     -16.196     -18.386
  H       31.126     -17.099     -18.273
  H       30.762     -15.863     -17.093

 6  7  8  9  10  11  12  13  14  15  26  29  33  34 0
 6-311+G(2d,p)
 ****
 36  38  39  40  41 0
 6-311+G(2d,p)
 ****
 1  2  3  4  5  16  17  18  19  20  21  22  23  24  25 0
 3-21G
 ****
 27  28  30  31  32  35  37  42  43  44  45  46  47 0
 3-21G
 ****
 48  49 0
 3-21G
 ****


