%nproc=1
%NoSave
%Mem=1900MB
#P OB98/GEN NMR

erre ene a

0 1
  C     -124.783     215.454     -38.108
  O     -124.535     214.071     -38.224
  H     -124.775     215.723     -37.048
  H     -125.767     215.687     -38.523
  H     -124.018     216.043     -38.625
  P     -124.043     213.492     -39.632
  C     -125.466     212.186     -41.345
  O     -125.315     213.392     -40.607
  C     -126.525     211.273     -40.729
  O     -127.695     212.048     -40.386
  C     -126.988     210.176     -41.692
  O     -126.196     209.001     -41.671
  C     -128.403     209.892     -41.191
  O     -128.399     208.894     -40.156
  C     -128.859     211.245     -40.632
  N     -133.399     211.271     -42.986
  C     -132.785     210.238     -42.300
  N     -133.451     209.064     -42.276
  N     -131.620     210.356     -41.715
  C     -131.031     211.559     -41.912
  C     -131.534     212.649     -42.588
  C     -132.856     212.535     -43.169
  O     -133.450     213.422     -43.772
  N     -130.634     213.687     -42.615
  C     -129.559     213.191     -42.031
  N     -129.781     211.934     -41.517
  O     -123.733     211.950     -39.312
  O     -122.836     214.161     -40.218
  H     -127.988     208.087     -40.519
  H     -123.008     211.637     -39.884
  H     -134.308     211.129     -43.390
  H     -128.616     213.712     -41.914
  H     -129.370     211.126     -39.669
  H     -129.032     209.507     -41.998
  H     -134.305     208.893     -42.780
  H     -127.060     210.563     -42.715
  H     -132.952     208.234     -41.948
  H     -126.138     210.847     -39.794
  H     -124.492     211.691     -41.331
  H     -125.709     212.405     -42.389
  P     -126.261     207.944     -42.868
  C     -127.268     205.597     -42.252
  O     -127.479     206.949     -42.595
  O     -124.973     207.029     -42.614
  O     -126.273     208.527     -44.243
  H     -124.237     207.307     -43.190
  H     -128.212     205.113     -42.114
  H     -126.703     205.543     -41.345
  H     -126.729     205.110     -43.037

 6  7  8  9  10  11  12  13  14  15  26  29  33  34 0
 6-311+G(2d,p)
 ****
 36  38  39  40  41 0
 6-311+G(2d,p)
 ****
 1  2  3  4  5  16  17  18  19  20  21  22  23  24  25 0
 3-21G
 ****
 27  28  30  31  32  35  37  42  43  44  45  46  47 0
 3-21G
 ****
 48  49 0
 3-21G
 ****


