%nproc=1
%NoSave
%Mem=1900MB
#P OB98/GEN NMR

erre ene a

0 1
  C      137.006     116.877     146.100
  O      136.867     116.301     147.401
  P      137.782     116.805     148.621
  C      140.093     116.277     149.588
  O      139.275     116.243     148.423
  C      141.590     116.121     149.288
  O      141.930     114.730     149.063
  C      142.090     116.908     148.075
  O      143.432     117.296     148.385
  C      142.066     115.860     146.977
  O      142.875     116.214     145.862
  C      142.516     114.617     147.755
  N      142.126     113.377     147.090
  C      143.154     112.577     146.590
  O      144.325     112.950     146.663
  N      142.830     111.392     145.970
  C      141.584     111.088     145.783
  N      141.326     109.916     145.142
  C      140.464     111.944     146.219
  C      140.807     113.056     146.867
  O      137.203     116.565     149.978
  O      137.943     118.378     148.351
  H      143.807     116.272     146.160
  H      138.047     118.841     149.205
  H      139.440     111.662     146.016
  H      140.058     113.749     147.235
  H      143.607     114.612     147.880
  H      141.040     115.730     146.614
  H      141.476     117.781     147.839
  H      142.134     116.437     150.187
  H      142.122     109.368     144.836
  H      139.774     115.471     150.259
  H      140.401     109.638     144.844
  H      139.917     117.222     150.117
  P      144.112     118.591     147.741
  C      145.293     119.122     145.533
  O      144.900     118.103     146.436
  O      144.930     119.408     148.690
  O      142.895     119.444     147.141
  H      143.188     120.361     146.989
  H      145.994     118.701     144.806
  H      145.786     119.945     146.067
  H      144.417     119.504     145.004
  H      136.315     116.412     145.428
  H      138.004     116.724     145.747
  H      136.803     117.926     146.151

 3  4  5  6  7  8  9  10  11  12  13  23  27  28  29  30  32 0
 6-311+G(2d,p)
 ****
 34  35 0
 6-311+G(2d,p)
 ****
 1  2  14  15  16  17  18  19  20  21  22  24  25  26 0
 3-21G
 ****
 31  33  36  37  38  39  40  41  42  43  44  45  46 0
 3-21G
 ****


