%nproc=1
%NoSave
%Mem=1900MB
#P OB98/GEN NMR

erre ene a

0 1
  C     -153.318      98.439      74.925
  O     -153.399      97.049      74.701
  P     -154.177      96.474      73.422
  C     -152.096      95.617      72.172
  O     -153.151      96.574      72.191
  C     -151.131      95.925      71.031
  O     -150.300      97.072      71.343
  C     -150.135      94.811      70.741
  O     -150.648      93.597      70.239
  C     -149.114      95.539      69.884
  O     -149.550      95.641      68.529
  C     -149.093      96.938      70.552
  N     -147.891      97.140      71.358
  C     -146.690      97.179      70.658
  O     -146.608      97.057      69.437
  N     -145.562      97.336      71.417
  C     -145.515      97.409      72.778
  O     -144.462      97.503      73.398
  C     -146.813      97.343      73.463
  C     -147.927      97.214      72.735
  O     -155.515      97.081      73.166
  O     -154.220      94.896      73.698
  H     -148.771      95.876      67.987
  H     -153.347      94.473      73.784
  H     -144.678      97.355      70.931
  H     -146.812      97.410      74.543
  H     -148.897      97.162      73.220
  H     -149.130      97.726      69.788
  H     -148.148      95.025      69.875
  H     -149.634      94.550      71.683
  H     -151.717      96.184      70.145
  H     -152.523      94.622      72.019
  H     -151.584      95.619      73.139
  P     -150.029      92.162      70.598
  C     -152.007      90.991      71.795
  O     -150.750      91.618      71.922
  O     -148.544      92.035      70.520
  O     -150.689      91.237      69.461
  H     -150.071      90.514      69.244
  H     -152.367      90.726      72.792
  H     -151.919      90.076      71.202
  H     -152.730      91.669      71.332
  H     -152.764      98.624      75.821
  H     -154.304      98.842      75.026
  H     -152.825      98.905      74.098

 3  4  5  6  7  8  9  10  11  12  13  23  28  29  30  31  32 0
 6-311+G(2d,p)
 ****
 33  34 0
 6-311+G(2d,p)
 ****
 1  2  14  15  16  17  18  19  20  21  22  24  25  26  27 0
 3-21G
 ****
 35  36  37  38  39  40  41  42  43  44  45 0
 3-21G
 ****


