%nproc=1
%NoSave
%Mem=1900MB
#P OB98/GEN NMR

erre ene a

0 1
  C       77.532     -53.970      57.808
  O       77.988     -52.837      57.086
  P       79.395     -52.868      56.319
  C       80.581     -52.138      58.480
  O       80.520     -53.106      57.438
  C       82.031     -51.852      58.866
  O       82.640     -53.081      59.330
  C       82.875     -51.331      57.709
  O       83.811     -50.374      58.214
  C       83.651     -52.546      57.230
  O       84.879     -52.163      56.591
  C       83.816     -53.331      58.536
  N       87.018     -57.211      57.506
  C       87.238     -55.891      57.695
  N       86.338     -54.912      57.939
  C       85.100     -55.426      58.038
  C       84.722     -56.749      57.873
  C       85.749     -57.669      57.592
  N       85.522     -59.016      57.411
  N       83.354     -56.889      58.018
  C       82.923     -55.677      58.285
  N       83.940     -54.759      58.317
  O       79.649     -51.707      55.421
  O       79.384     -54.250      55.516
  H       85.334     -51.540      57.194
  H       79.804     -54.138      54.642
  H       88.275     -55.576      57.638
  H       81.891     -55.408      58.449
  H       84.689     -52.989      59.104
  H       83.050     -53.102      56.501
  H       82.274     -50.882      56.911
  H       82.037     -51.145      59.703
  H       80.049     -52.534      59.350
  H       86.329     -59.614      57.335
  H       84.609     -59.381      57.646
  H       80.079     -51.221      58.154
  P       83.782     -48.924      57.511
  C       85.399     -49.741      55.642
  O       84.137     -49.210      55.975
  O       84.632     -47.933      58.235
  O       82.213     -48.601      57.528
  H       81.676     -49.423      57.559
  H       85.466     -49.829      54.554
  H       85.518     -50.738      56.076
  H       86.199     -49.083      55.994
  H       76.580     -53.754      58.246
  H       78.234     -54.208      58.580
  H       77.438     -54.803      57.143

 3  4  5  6  7  8  9  10  11  12  22  25  29  30  31  32 0
 6-311+G(2d,p)
 ****
 33  36  37 0
 6-311+G(2d,p)
 ****
 1  2  13  14  15  16  17  18  19  20  21  23  24  26 0
 3-21G
 ****
 27  28  34  35  38  39  40  41  42  43  44  45  46  47  48 0
 3-21G
 ****


