%nproc=1
%NoSave
%Mem=1900MB
#P OB98/GEN NMR

erre ene a

0 1
  C      102.139    -777.083      46.823
  O      101.560    -775.885      47.317
  H      101.710    -777.337      45.847
  H      103.216    -776.931      46.705
  H      101.972    -777.902      47.530
  P       99.961    -775.881      47.455
  C       99.674    -773.709      46.059
  O       99.399    -775.100      46.165
  C       99.979    -773.343      44.611
  O      101.268    -773.875      44.228
  C       98.995    -773.899      43.590
  O       97.794    -773.133      43.533
  C       99.807    -773.762      42.308
  O       99.735    -772.401      41.838
  C      101.232    -774.076      42.783
  N      105.262    -777.196      42.143
  C      105.184    -775.868      42.427
  N      104.083    -775.103      42.573
  C      102.957    -775.844      42.409
  C      102.892    -777.203      42.114
  C      104.115    -777.884      41.975
  N      104.183    -779.228      41.663
  N      101.580    -777.610      42.030
  C      100.867    -776.534      42.271
  N      101.660    -775.433      42.495
  O       99.701    -774.842      48.655
  O       99.335    -777.206      47.730
  H       98.793    -772.130      41.904
  H       98.931    -775.154      49.176
  H      106.134    -775.356      42.564
  H       99.788    -776.494      42.293
  H      101.959    -773.392      42.349
  H       99.451    -774.404      41.506
  H       98.788    -774.960      43.773
  H      100.035    -772.249      44.539
  H      100.539    -773.461      46.681
  H      105.067    -779.698      41.772
  H      103.311    -779.738      41.539
  H       98.809    -773.149      46.415
  P       96.424    -773.873      43.940
  C       95.331    -772.927      41.783
  O       95.630    -774.088      42.568
  O       95.602    -772.718      44.671
  O       96.587    -775.077      44.806
  H       94.957    -773.113      45.295
  H       94.802    -773.220      40.900
  H       96.242    -772.439      41.507
  H       94.726    -772.255      42.356

 6  7  8  9  10  11  12  13  14  15  25  28  32  33  34  35 0
 6-311+G(2d,p)
 ****
 36  39  40 0
 6-311+G(2d,p)
 ****
 1  2  3  4  5  16  17  18  19  20  21  22  23  24 0
 3-21G
 ****
 26  27  29  30  31  37  38  41  42  43  44  45  46  47  48 0
 3-21G
 ****


