%nproc=1
%NoSave
%Mem=1900MB
#P OB98/GEN NMR

erre ene a

0 1
  C      533.456     203.513     340.578
  O      532.920     203.454     341.886
  P      531.448     202.846     342.065
  C      529.196     203.284     340.778
  O      530.502     203.727     341.114
  C      528.622     204.130     339.633
  O      529.633     204.324     338.626
  C      527.439     203.501     338.911
  O      526.232     203.628     339.650
  C      527.459     204.278     337.591
  O      526.836     205.564     337.764
  C      528.970     204.446     337.348
  N      529.505     203.490     336.376
  C      529.101     203.668     335.057
  O      528.335     204.558     334.698
  N      529.593     202.751     334.158
  C      530.383     201.673     334.452
  O      530.755     200.862     333.615
  C      530.749     201.525     335.865
  C      530.300     202.427     336.747
  O      531.102     203.341     343.550
  O      531.384     201.374     341.853
  H      531.586     204.157     343.779
  H      525.879     205.383     337.926
  H      529.328     202.872     333.188
  H      531.359     200.679     336.143
  H      530.557     202.327     337.800
  H      529.177     205.460     336.985
  H      526.919     203.755     336.796
  H      527.640     202.440     338.709
  H      528.349     205.114     340.040
  H      528.544     203.387     341.665
  H      529.224     202.230     340.500
  P      525.039     202.620     339.258
  C      523.281     202.611     337.330
  O      524.219     203.340     338.093
  O      524.091     202.743     340.546
  O      525.502     201.228     338.963
  H      523.999     203.668     340.866
  H      522.583     203.320     336.855
  H      522.702     201.917     337.955
  H      523.798     202.049     336.552
  H      534.437     203.938     340.613
  H      532.826     204.120     339.961
  H      533.510     202.525     340.170

 3  4  5  6  7  8  9  10  11  12  13  24  28  29  30  31  32 0
 6-311+G(2d,p)
 ****
 33  34 0
 6-311+G(2d,p)
 ****
 1  2  14  15  16  17  18  19  20  21  22  23  25  26  27 0
 3-21G
 ****
 35  36  37  38  39  40  41  42  43  44  45 0
 3-21G
 ****


