%nproc=1
%NoSave
%Mem=1900MB
#P OB98/GEN NMR

erre ene a

0 1
  C      -16.479    -778.004    -251.812
  O      -16.759    -779.361    -252.070
  H      -15.396    -777.860    -251.812
  H      -16.869    -777.721    -250.832
  H      -16.919    -777.363    -252.586
  P      -18.298    -779.750    -252.313
  C      -20.494    -779.521    -250.944
  O      -19.077    -779.393    -250.956
  C      -20.999    -779.701    -249.518
  O      -20.634    -778.552    -248.711
  C      -22.512    -779.845    -249.403
  O      -22.940    -781.176    -249.657
  C      -22.716    -779.469    -247.941
  O      -22.337    -780.580    -247.099
  C      -21.721    -778.318    -247.766
  N      -24.923    -774.758    -246.079
  C      -24.608    -776.000    -245.546
  N      -25.243    -776.345    -244.407
  N      -23.748    -776.828    -246.086
  C      -23.199    -776.356    -247.233
  C      -23.431    -775.149    -247.856
  C      -24.375    -774.241    -247.244
  O      -24.673    -773.124    -247.659
  N      -22.671    -775.016    -248.988
  C      -22.007    -776.150    -249.068
  N      -22.293    -777.001    -248.031
  O      -18.278    -781.356    -252.318
  O      -18.901    -779.208    -253.565
  H      -23.058    -781.233    -247.163
  H      -18.934    -781.671    -252.966
  H      -25.600    -774.171    -245.632
  H      -21.301    -776.405    -249.851
  H      -21.287    -778.284    -246.765
  H      -23.754    -779.230    -247.709
  H      -25.950    -775.777    -243.971
  H      -23.034    -779.123    -250.039
  H      -25.003    -777.237    -243.982
  H      -20.491    -780.572    -249.088
  H      -20.778    -780.393    -251.547
  H      -20.931    -778.626    -251.392
  P      -24.403    -781.379    -250.290
  C      -26.812    -780.782    -249.523
  O      -25.416    -780.701    -249.247
  O      -24.665    -782.947    -250.093
  O      -24.544    -780.956    -251.710
  H      -25.329    -783.258    -250.739
  H      -27.358    -780.289    -248.746
  H      -27.107    -781.809    -249.570
  H      -27.018    -780.308    -250.460

 6  7  8  9  10  11  12  13  14  15  26  29  33  34 0
 6-311+G(2d,p)
 ****
 36  38  39  40  41 0
 6-311+G(2d,p)
 ****
 1  2  3  4  5  16  17  18  19  20  21  22  23  24  25 0
 3-21G
 ****
 27  28  30  31  32  35  37  42  43  44  45  46  47 0
 3-21G
 ****
 48  49 0
 3-21G
 ****


