%nproc=1
%NoSave
%Mem=1900MB
#P OB98/GEN NMR

erre ene a

0 1
  C     -219.855      21.309    -197.362
  O     -218.958      20.671    -196.471
  P     -218.703      21.286    -195.015
  C     -221.069      20.884    -194.009
  O     -220.117      21.814    -194.475
  C     -222.065      21.544    -193.047
  O     -221.305      22.197    -192.002
  C     -222.934      22.630    -193.672
  O     -224.062      22.853    -192.822
  C     -222.016      23.829    -193.625
  O     -222.728      25.059    -193.727
  C     -221.250      23.615    -192.293
  N     -219.852      24.065    -192.393
  C     -219.639      25.430    -192.555
  O     -220.551      26.256    -192.538
  N     -218.351      25.807    -192.821
  C     -217.298      24.957    -192.983
  O     -216.241      25.272    -193.516
  C     -217.536      23.566    -192.568
  C     -218.791      23.182    -192.321
  O     -217.891      22.627    -195.335
  O     -217.960      20.398    -194.079
  H     -222.058      25.765    -193.877
  H     -216.933      22.473    -195.240
  H     -218.224      26.779    -193.080
  H     -216.692      22.891    -192.538
  H     -219.003      22.148    -192.063
  H     -221.723      24.161    -191.469
  H     -221.318      23.780    -194.470
  H     -223.266      22.409    -194.691
  H     -222.686      20.772    -192.581
  H     -220.552      20.053    -193.519
  H     -221.622      20.451    -194.852
  P     -225.517      22.517    -193.403
  C     -225.708      20.297    -192.131
  O     -225.647      20.920    -193.398
  O     -225.879      23.187    -194.687
  O     -226.494      22.955    -192.208
  H     -227.399      23.076    -192.550
  H     -226.288      19.374    -192.220
  H     -226.183      20.943    -191.388
  H     -224.696      20.049    -191.801
  H     -219.898      20.760    -198.279
  H     -219.515      22.305    -197.558
  H     -220.830      21.345    -196.922

 3  4  5  6  7  8  9  10  11  12  13  23  28  29  30  31  32 0
 6-311+G(2d,p)
 ****
 33  34 0
 6-311+G(2d,p)
 ****
 1  2  14  15  16  17  18  19  20  21  22  24  25  26  27 0
 3-21G
 ****
 35  36  37  38  39  40  41  42  43  44  45 0
 3-21G
 ****


