%nproc=1
%NoSave
%Mem=1900MB
#P OB98/GEN NMR

erre ene a

0 1
  C     -261.026     477.014    -130.672
  O     -260.792     476.061    -131.703
  P     -259.790     474.845    -131.408
  C     -260.131     473.188    -129.370
  O     -260.557     473.686    -130.621
  C     -260.744     471.794    -129.148
  O     -262.183     471.880    -129.093
  C     -260.399     470.802    -130.256
  O     -259.159     470.156    -130.020
  C     -261.590     469.864    -130.220
  O     -261.467     468.938    -129.120
  C     -262.747     470.859    -129.961
  N     -263.364     471.524    -131.135
  C     -264.680     471.222    -131.487
  O     -265.393     470.418    -130.893
  N     -265.179     471.900    -132.574
  C     -264.577     472.940    -133.220
  O     -265.097     473.551    -134.148
  C     -263.255     473.316    -132.711
  C     -262.714     472.602    -131.720
  O     -258.777     475.438    -130.324
  O     -259.074     474.329    -132.619
  H     -261.305     469.465    -128.320
  H     -257.876     475.486    -130.691
  H     -266.101     471.640    -132.890
  H     -262.763     474.170    -133.165
  H     -261.731     472.872    -131.341
  H     -263.561     470.365    -129.414
  H     -261.641     469.258    -131.121
  H     -260.395     471.305    -131.228
  H     -260.385     471.408    -128.181
  H     -260.434     473.860    -128.563
  H     -259.039     473.131    -129.347
  P     -257.796     470.998    -130.066
  C     -256.567     472.431    -128.326
  O     -257.819     471.923    -128.744
  O     -257.503     471.708    -131.346
  O     -256.672     469.911    -129.704
  H     -256.260     469.553    -130.524
  H     -256.738     473.162    -127.527
  H     -256.059     472.929    -129.158
  H     -255.946     471.624    -127.935
  H     -261.712     477.757    -131.022
  H     -260.102     477.481    -130.402
  H     -261.440     476.521    -129.817

 3  4  5  6  7  8  9  10  11  12  13  23  28  29  30  31  32 0
 6-311+G(2d,p)
 ****
 33  34 0
 6-311+G(2d,p)
 ****
 1  2  14  15  16  17  18  19  20  21  22  24  25  26  27 0
 3-21G
 ****
 35  36  37  38  39  40  41  42  43  44  45 0
 3-21G
 ****


