%nproc=1
%NoSave
%Mem=1900MB
#P OB98/GEN NMR

erre ene a

0 1
  C       91.014     367.191       1.986
  O       89.822     366.741       1.372
  H       90.817     367.369       3.046
  H       91.345     368.126       1.526
  H       91.796     366.432       1.892
  P       89.892     366.481      -0.210
  C       90.987     364.665      -1.700
  O       90.945     365.289      -0.425
  C       92.385     364.122      -1.985
  O       93.336     365.201      -2.106
  C       92.924     363.182      -0.911
  O       92.447     361.861      -1.108
  C       94.424     363.305      -1.137
  O       94.848     362.488      -2.250
  C       94.577     364.796      -1.469
  N       97.936     365.919       2.132
  C       97.956     364.927       1.171
  N       99.018     364.090       1.185
  N       97.016     364.759       0.280
  C       95.989     365.630       0.419
  C       95.848     366.653       1.329
  C       96.924     366.861       2.275
  O       97.003     367.770       3.095
  N       94.670     367.330       1.138
  C       94.088     366.698       0.137
  N       94.846     365.654      -0.330
  O       90.674     367.766      -0.764
  O       88.577     366.316      -0.892
  H       94.345     362.745      -3.042
  H       90.285     368.022      -1.622
  H       98.701     366.020       2.772
  H       93.127     366.959      -0.288
  H       95.385     364.973      -2.188
  H       94.991     362.961      -0.271
  H       99.604     363.986       2.000
  H       92.678     363.547       0.094
  H       98.994     363.321       0.529
  H       92.349     363.615      -2.957
  H       90.722     365.403      -2.464
  H       90.261     363.846      -1.727
  P       92.515     360.840       0.124
  C       91.091     360.625       2.285
  O       91.718     361.497       1.354
  O       94.049     360.932       0.577
  O       92.139     359.437      -0.207
  H       94.526     360.131       0.292
  H       90.603     361.203       3.042
  H       91.829     359.995       2.737
  H       90.369     360.021       1.777

 6  7  8  9  10  11  12  13  14  15  26  29  33  34 0
 6-311+G(2d,p)
 ****
 36  38  39  40  41 0
 6-311+G(2d,p)
 ****
 1  2  3  4  5  16  17  18  19  20  21  22  23  24  25 0
 3-21G
 ****
 27  28  30  31  32  35  37  42  43  44  45  46  47 0
 3-21G
 ****
 48  49 0
 3-21G
 ****


