%nproc=1
%NoSave
%Mem=1900MB
#P OB98/GEN NMR

erre ene a

0 1
  C      684.712     704.924    -763.913
  O      684.251     705.693    -762.816
  H      684.197     703.959    -763.907
  H      685.786     704.744    -763.834
  H      684.486     705.436    -764.856
  P      684.910     707.126    -762.556
  C      683.325     708.502    -764.073
  O      684.645     707.999    -763.875
  C      683.293     710.013    -763.856
  O      683.471     710.331    -762.459
  C      684.392     710.769    -764.598
  O      684.088     710.863    -765.978
  C      684.379     712.087    -763.841
  O      683.287     712.921    -764.265
  C      684.163     711.597    -762.382
  N      685.398     711.475    -761.618
  C      686.156     712.645    -761.488
  O      685.785     713.693    -762.020
  N      687.330     712.584    -760.779
  C      687.696     711.476    -760.209
  N      688.861     711.481    -759.512
  C      686.904     710.234    -760.285
  C      685.783     710.299    -761.016
  O      686.341     707.122    -762.097
  O      683.949     707.805    -761.474
  H      682.475     712.484    -763.948
  H      684.284     707.648    -760.575
  H      687.236     709.338    -759.793
  H      685.143     709.435    -761.127
  H      683.496     712.290    -761.848
  H      685.294     712.662    -763.991
  H      685.362     710.286    -764.432
  H      682.294     710.377    -764.152
  H      689.363     712.366    -759.470
  H      682.682     708.005    -763.340
  H      689.155     710.736    -758.905
  H      682.960     708.255    -765.073
  P      685.179     711.376    -767.037
  C      685.989     709.276    -768.291
  O      686.229     710.169    -767.204
  O      685.792     712.699    -766.728
  O      684.388     711.344    -768.430
  H      683.784     712.125    -768.500
  H      686.745     708.519    -768.304
  H      686.014     709.820    -769.212
  H      685.029     708.819    -768.172

 6  7  8  9  10  11  12  13  14  15  16  26  30  31  32  33  35 0
 6-311+G(2d,p)
 ****
 37  38 0
 6-311+G(2d,p)
 ****
 1  2  3  4  5  17  18  19  20  21  22  23  24  25 0
 3-21G
 ****
 27  28  29  34  36  39  40  41  42  43  44  45  46 0
 3-21G
 ****


