%nproc=1
%NoSave
%Mem=1900MB
#P OB98/GEN NMR

erre ene a

0 1
  C      -56.050     -61.354      76.920
  O      -56.690     -60.104      76.800
  P      -56.055     -58.778      77.434
  C      -58.110     -58.791      78.988
  O      -57.253     -58.000      78.173
  C      -59.452     -58.080      79.194
  O      -60.306     -58.927      80.026
  C      -59.306     -56.717      79.900
  O      -59.932     -55.629      79.219
  C      -59.835     -57.005      81.296
  O      -60.248     -55.851      82.003
  C      -60.905     -58.063      81.011
  N      -61.311     -58.787      82.213
  C      -62.612     -58.589      82.664
  O      -63.434     -57.860      82.115
  N      -62.943     -59.218      83.832
  C      -62.092     -59.913      84.637
  O      -62.433     -60.367      85.720
  C      -60.720     -60.056      84.128
  C      -60.399     -59.517      82.949
  O      -55.264     -57.935      76.492
  O      -55.210     -59.339      78.674
  H      -60.492     -56.125      82.907
  H      -55.731     -59.822      79.338
  H      -63.884     -59.082      84.170
  H      -60.019     -60.593      84.751
  H      -59.395     -59.606      82.549
  H      -61.793     -57.621      80.559
  H      -59.020     -57.457      81.875
  H      -58.253     -56.419      79.964
  H      -59.925     -57.968      78.214
  H      -57.632     -58.941      79.959
  H      -58.249     -59.777      78.533
  P      -59.174     -54.331      78.671
  C      -57.526     -53.721      80.587
  O      -58.742     -53.438      79.926
  O      -59.881     -53.593      77.584
  O      -57.777     -54.910      78.142
  H      -57.448     -54.353      77.412
  H      -57.617     -53.417      81.633
  H      -56.722     -53.141      80.126
  H      -57.282     -54.785      80.546
  H      -56.636     -62.103      76.430
  H      -55.946     -61.603      77.955
  H      -55.082     -61.304      76.466

 3  4  5  6  7  8  9  10  11  12  13  23  28  29  30  31  32 0
 6-311+G(2d,p)
 ****
 33  34 0
 6-311+G(2d,p)
 ****
 1  2  14  15  16  17  18  19  20  21  22  24  25  26  27 0
 3-21G
 ****
 35  36  37  38  39  40  41  42  43  44  45 0
 3-21G
 ****


