%nproc=1
%NoSave
%Mem=1900MB
#P OB98/GEN NMR

erre ene a

0 1
  C      -48.592    -166.299     493.393
  O      -47.860    -165.164     493.842
  P      -47.039    -164.338     492.729
  C      -44.727    -164.510     493.936
  O      -45.520    -164.850     492.811
  C      -43.272    -164.925     493.689
  O      -43.180    -166.370     493.558
  C      -42.667    -164.350     492.416
  O      -42.216    -163.029     492.636
  C      -41.547    -165.339     492.137
  O      -40.385    -165.053     492.946
  C      -42.187    -166.671     492.545
  N      -41.583    -170.440     489.225
  C      -40.671    -169.867     490.099
  N      -39.426    -170.406     490.108
  N      -40.951    -168.860     490.879
  C      -42.220    -168.418     490.742
  C      -43.212    -168.897     489.908
  C      -42.909    -170.040     489.091
  O      -43.698    -170.644     488.374
  N      -44.372    -168.172     490.035
  C      -44.097    -167.283     490.970
  N      -42.794    -167.408     491.453
  O      -46.997    -162.851     493.343
  O      -47.635    -164.365     491.349
  H      -40.647    -164.964     493.881
  H      -47.690    -162.296     492.945
  H      -41.311    -171.230     488.662
  H      -44.786    -166.551     491.359
  H      -41.460    -167.364     493.017
  H      -41.211    -165.309     491.092
  H      -39.142    -171.172     489.517
  H      -43.397    -164.377     491.593
  H      -38.749    -169.993     490.738
  H      -42.682    -164.633     494.569
  H      -45.104    -165.031     494.822
  H      -44.795    -163.418     494.112
  P      -41.868    -162.129     491.346
  C      -39.371    -161.846     492.049
  O      -40.304    -162.292     491.074
  O      -42.004    -160.626     491.890
  O      -42.757    -162.375     490.167
  H      -42.369    -160.066     491.180
  H      -38.467    -162.462     492.000
  H      -39.797    -161.912     493.061
  H      -39.114    -160.802     491.837
  H      -49.088    -166.755     494.224
  H      -47.920    -167.004     492.949
  H      -49.317    -165.992     492.669

 3  4  5  6  7  8  9  10  11  12  23  26  30  31 0
 6-311+G(2d,p)
 ****
 33  35  36  37  38 0
 6-311+G(2d,p)
 ****
 1  2  13  14  15  16  17  18  19  20  21  22  24  25 0
 3-21G
 ****
 27  28  29  32  34  39  40  41  42  43  44  45  46  47  48  49 0
 3-21G
 ****


