%nproc=1
%NoSave
%Mem=1900MB
#P OB98/GEN NMR

erre ene a

0 1
  C     -240.589     212.051    -382.351
  O     -240.530     213.399    -382.776
  H     -240.607     211.404    -383.232
  H     -241.496     211.871    -381.769
  H     -239.709     211.800    -381.752
  P     -240.498     214.546    -381.658
  C     -237.934     214.729    -381.905
  O     -239.029     214.501    -381.024
  C     -237.100     215.901    -381.403
  O     -237.872     217.119    -381.425
  C     -236.591     215.739    -379.970
  O     -235.439     214.913    -379.944
  C     -236.303     217.187    -379.613
  O     -235.069     217.605    -380.229
  C     -237.496     217.909    -380.266
  N     -240.930     221.152    -378.422
  C     -239.833     221.384    -379.232
  N     -239.598     222.674    -379.563
  N     -239.032     220.442    -379.664
  C     -239.354     219.215    -379.194
  C     -240.403     218.866    -378.374
  C     -241.314     219.903    -377.953
  O     -242.303     219.737    -377.248
  N     -240.363     217.527    -378.059
  C     -239.320     217.069    -378.716
  N     -238.660     218.054    -379.411
  O     -241.599     214.511    -380.642
  O     -240.497     215.907    -382.498
  H     -234.380     216.988    -379.922
  H     -241.402     216.240    -382.632
  H     -241.498     221.921    -378.113
  H     -238.996     216.030    -378.727
  H     -237.230     218.910    -380.624
  H     -236.205     217.353    -378.541
  H     -240.003     223.439    -379.040
  H     -237.377     215.366    -379.301
  H     -238.776     222.871    -380.114
  H     -236.263     216.042    -382.101
  H     -238.346     214.946    -382.893
  H     -237.308     213.833    -381.970
  P     -235.150     213.932    -378.702
  C     -235.869     211.844    -380.049
  O     -236.129     212.684    -378.934
  O     -235.260     214.569    -377.361
  O     -233.717     213.306    -379.013
  H     -232.965     213.845    -378.660
  H     -236.595     211.058    -380.081
  H     -234.890     211.422    -379.957
  H     -235.926     212.419    -380.950

 6  7  8  9  10  11  12  13  14  15  26  29  33  34 0
 6-311+G(2d,p)
 ****
 36  38  39  40  41 0
 6-311+G(2d,p)
 ****
 1  2  3  4  5  16  17  18  19  20  21  22  23  24  25 0
 3-21G
 ****
 27  28  30  31  32  35  37  42  43  44  45  46  47 0
 3-21G
 ****
 48  49 0
 3-21G
 ****


