%nproc=1
%NoSave
%Mem=1900MB
#P OB98/GEN NMR

erre ene a

0 1
  C     -102.611      29.474     160.493
  O     -101.607      30.213     159.786
  P     -100.082      30.040     160.243
  C      -98.015      28.717     159.378
  O      -99.428      28.870     159.362
  C      -97.582      27.682     158.334
  O      -98.209      26.399     158.563
  C      -97.936      28.068     156.905
  O      -96.973      28.952     156.345
  C      -97.862      26.718     156.209
  O      -96.488      26.387     155.924
  C      -98.434      25.772     157.274
  N     -101.874      23.355     154.461
  C     -100.497      23.379     154.357
  N      -99.956      22.646     153.358
  N      -99.719      24.062     155.156
  C     -100.396      24.732     156.116
  C     -101.759      24.788     156.323
  C     -102.607      24.039     155.421
  O     -103.835      23.990     155.457
  N     -102.069      25.582     157.396
  C     -100.902      25.990     157.851
  N      -99.855      25.517     157.100
  O     -100.219      29.360     161.689
  O      -99.310      31.317     160.305
  H      -96.174      27.040     155.269
  H      -99.449      29.593     162.238
  H     -102.425      22.815     153.812
  H     -100.763      26.625     158.720
  H      -97.929      24.799     157.285
  H      -98.393      26.714     155.253
  H     -100.489      22.057     152.739
  H      -98.955      28.471     156.844
  H      -98.946      22.627     153.287
  H      -96.495      27.554     158.414
  H      -97.676      28.407     160.370
  H      -97.550      29.690     159.195
  P      -97.394      30.488     156.141
  C      -96.645      32.732     157.212
  O      -96.568      31.323     157.231
  O      -98.899      30.519     156.689
  O      -97.306      30.977     154.736
  H      -99.417      31.188     156.201
  H      -96.160      33.122     158.112
  H      -97.687      33.067     157.202
  H      -96.124      33.126     156.334
  H     -103.573      29.691     160.077
  H     -102.598      29.753     161.526
  H     -102.412      28.426     160.404

 3  4  5  6  7  8  9  10  11  12  23  26  30  31 0
 6-311+G(2d,p)
 ****
 33  35  36  37  38 0
 6-311+G(2d,p)
 ****
 1  2  13  14  15  16  17  18  19  20  21  22  24  25 0
 3-21G
 ****
 27  28  29  32  34  39  40  41  42  43  44  45  46  47  48  49 0
 3-21G
 ****


