%nproc=1
%NoSave
%Mem=1900MB
#P OB98/GEN NMR

erre ene a

0 1
  C      -81.576     386.807    -898.630
  O      -81.791     387.814    -897.630
  P      -81.477     389.338    -898.020
  C      -83.831     390.300    -897.380
  O      -82.429     390.287    -897.130
  C      -84.596     390.788    -896.140
  O      -84.749     389.728    -895.150
  C      -83.922     391.955    -895.410
  O      -84.193     393.197    -896.020
  C      -84.564     391.856    -894.030
  O      -85.869     392.497    -894.100
  C      -84.708     390.347    -893.840
  N      -82.979     389.394    -889.170
  C      -84.157     389.932    -889.580
  N      -85.041     390.305    -888.610
  N      -84.487     390.156    -890.840
  C      -83.544     389.739    -891.710
  C      -82.315     389.134    -891.420
  C      -81.970     388.927    -890.030
  O      -80.932     388.445    -889.600
  N      -81.624     388.839    -892.580
  C      -82.440     389.236    -893.550
  N      -83.598     389.792    -893.070
  O      -82.151     389.463    -899.470
  O      -80.032     389.707    -898.060
  H      -86.414     392.113    -893.370
  H      -81.699     390.152    -900.000
  H      -82.778     389.247    -888.200
  H      -82.202     389.135    -894.600
  H      -85.639     390.092    -893.310
  H      -83.993     392.398    -893.270
  H      -84.857     390.145    -887.630
  H      -82.839     391.778    -895.310
  H      -85.912     390.695    -888.870
  H      -85.598     391.107    -896.470
  H      -84.187     389.303    -897.650
  H      -84.021     390.948    -898.250
  P      -83.303     394.465    -895.620
  C      -82.379     394.847    -898.020
  O      -83.160     395.352    -896.940
  O      -81.850     393.821    -895.420
  O      -83.780     395.211    -894.390
  H      -81.353     394.310    -894.720
  H      -82.525     395.506    -898.890
  H      -82.685     393.840    -898.280
  H      -81.309     394.846    -897.750
  H      -81.826     385.847    -898.229
  H      -80.548     386.813    -898.927
  H      -82.194     387.010    -899.480

 3  4  5  6  7  8  9  10  11  12  23  26  30  31 0
 6-311+G(2d,p)
 ****
 33  35  36  37  38 0
 6-311+G(2d,p)
 ****
 1  2  13  14  15  16  17  18  19  20  21  22  24  25 0
 3-21G
 ****
 27  28  29  32  34  39  40  41  42  43  44  45  46  47  48  49 0
 3-21G
 ****


