%nproc=1
%NoSave
%Mem=1900MB
#P OB98/GEN NMR

erre ene a

0 1
  C      -88.856    1097.235    -650.298
  O      -88.188    1096.562    -649.235
  P      -88.742    1096.779    -647.733
  C      -89.957    1094.466    -647.628
  O      -90.061    1095.882    -647.554
  C      -91.335    1093.814    -647.465
  O      -92.263    1094.251    -648.482
  C      -91.303    1092.287    -647.585
  O      -90.910    1091.687    -646.347
  C      -92.778    1091.984    -647.866
  O      -93.528    1092.038    -646.658
  C      -93.170    1093.163    -648.778
  N      -95.536    1090.940    -652.749
  C      -95.868    1091.028    -651.436
  N      -95.174    1091.625    -650.440
  C      -94.042    1092.171    -650.914
  C      -93.571    1092.161    -652.215
  C      -94.372    1091.503    -653.164
  N      -94.027    1091.401    -654.497
  N      -92.361    1092.813    -652.304
  C      -92.102    1093.235    -651.088
  N      -93.097    1092.858    -650.204
  O      -89.297    1098.275    -647.776
  O      -87.696    1096.603    -646.677
  H      -93.037    1091.548    -645.978
  H      -89.173    1098.693    -646.909
  H      -96.820    1090.574    -651.162
  H      -91.224    1093.817    -650.803
  H      -94.185    1093.524    -648.577
  H      -92.918    1090.998    -648.305
  H      -90.681    1091.965    -648.424
  H      -91.742    1094.097    -646.480
  H      -89.265    1094.111    -646.860
  H      -94.667    1090.952    -655.112
  H      -93.177    1091.846    -654.819
  H      -89.507    1094.199    -648.592
  P      -89.392    1091.202    -646.233
  C      -88.770    1093.173    -644.631
  O      -88.547    1092.521    -645.875
  O      -88.979    1090.863    -647.746
  O      -89.181    1090.036    -645.318
  H      -88.307    1090.168    -647.766
  H      -87.922    1093.851    -644.420
  H      -88.843    1092.442    -643.823
  H      -89.695    1093.764    -644.683
  H      -88.380    1096.997    -651.226
  H      -88.811    1098.292    -650.135
  H      -89.879    1096.922    -650.331

 3  4  5  6  7  8  9  10  11  12  22  25  29  30  31  32 0
 6-311+G(2d,p)
 ****
 33  36  37 0
 6-311+G(2d,p)
 ****
 1  2  13  14  15  16  17  18  19  20  21  23  24  26 0
 3-21G
 ****
 27  28  34  35  38  39  40  41  42  43  44  45  46  47  48 0
 3-21G
 ****


