%nproc=1
%NoSave
%Mem=1900MB
#P OB98/GEN NMR

erre ene a

0 1
  C       69.622     436.535    -332.158
  O       68.531     435.638    -331.927
  P       67.013     436.124    -332.130
  C       65.307     437.651    -330.980
  O       66.566     437.000    -330.855
  C       64.705     438.079    -329.636
  O       64.364     436.927    -328.826
  C       65.606     438.976    -328.781
  O       64.726     439.862    -328.076
  C       66.248     437.979    -327.828
  O       66.801     438.599    -326.674
  C       65.077     437.023    -327.578
  N       65.517     435.715    -327.104
  C       65.840     435.610    -325.746
  O       65.799     436.600    -325.019
  N       66.247     434.388    -325.256
  C       66.418     433.392    -326.070
  N       66.847     432.218    -325.535
  C       66.170     433.483    -327.527
  C       65.718     434.658    -327.961
  O       66.051     435.039    -332.507
  O       67.114     437.216    -333.306
  H       67.263     437.918    -326.149
  H       66.279     437.219    -333.814
  H       66.350     432.629    -328.169
  H       65.502     434.825    -329.016
  H       64.385     437.443    -326.831
  H       67.062     437.454    -328.345
  H       66.340     439.538    -329.363
  H       63.760     438.603    -329.852
  H       67.026     432.206    -324.533
  H       64.610     436.967    -331.484
  H       67.117     431.416    -326.088
  H       65.425     438.525    -331.631
  P       64.775     441.450    -328.278
  C       65.908     443.349    -326.984
  O       65.994     441.989    -327.385
  O       63.471     442.149    -328.046
  O       65.295     441.660    -329.776
  H       65.083     442.568    -330.068
  H       66.665     443.545    -326.218
  H       64.917     443.570    -326.566
  H       66.095     443.998    -327.843
  H       70.546     436.029    -331.971
  H       69.537     437.376    -331.502
  H       69.599     436.871    -333.174

 3  4  5  6  7  8  9  10  11  12  13  23  27  28  29  30  32 0
 6-311+G(2d,p)
 ****
 34  35 0
 6-311+G(2d,p)
 ****
 1  2  14  15  16  17  18  19  20  21  22  24  25  26 0
 3-21G
 ****
 31  33  36  37  38  39  40  41  42  43  44  45  46 0
 3-21G
 ****


