%nproc=1
%NoSave
%Mem=1900MB
#P OB98/GEN NMR

erre ene a

0 1
  C      159.990      37.256    -235.479
  O      159.611      38.237    -234.536
  H      160.861      36.719    -235.094
  H      160.257      37.718    -236.432
  H      159.178      36.537    -235.626
  P      158.421      39.240    -234.916
  C      157.030      38.288    -232.956
  O      157.072      38.593    -234.342
  C      155.668      37.694    -232.570
  O      154.649      38.726    -232.706
  C      155.236      36.508    -233.448
  O      154.420      35.651    -232.639
  C      154.400      37.206    -234.501
  O      153.625      36.290    -235.236
  C      153.661      38.232    -233.636
  N      153.061      39.298    -234.421
  C      151.859      38.992    -235.062
  O      151.368      37.866    -234.959
  N      151.256      39.956    -235.829
  C      151.838      41.104    -235.996
  N      151.197      42.009    -236.780
  C      153.140      41.447    -235.382
  C      153.687      40.509    -234.611
  O      158.356      39.657    -236.347
  O      158.656      40.500    -233.953
  H      153.149      36.742    -235.969
  H      159.031      41.240    -234.464
  H      153.593      42.408    -235.569
  H      154.642      40.665    -234.120
  H      152.872      37.745    -233.047
  H      155.044      37.720    -235.226
  H      156.082      35.951    -233.856
  H      155.693      37.413    -231.509
  H      150.313      41.728    -237.189
  H      157.199      39.221    -232.408
  H      151.563      42.924    -236.998
  H      157.824      37.580    -232.699
  P      155.028      34.637    -231.556
  C      153.053      34.682    -229.896
  O      154.429      34.984    -230.110
  O      156.520      34.538    -231.588
  O      154.372      33.216    -231.900
  H      154.997      32.510    -231.659
  H      152.778      34.959    -228.900
  H      152.893      33.633    -230.032
  H      152.455      35.228    -230.596

 6  7  8  9  10  11  12  13  14  15  16  26  30  31  32  33  35 0
 6-311+G(2d,p)
 ****
 37  38 0
 6-311+G(2d,p)
 ****
 1  2  3  4  5  17  18  19  20  21  22  23  24  25 0
 3-21G
 ****
 27  28  29  34  36  39  40  41  42  43  44  45  46 0
 3-21G
 ****


