%nproc=1
%NoSave
%Mem=1900MB
#P OB98/GEN NMR

erre ene a

0 1
  C     -802.744     345.616    -228.966
  O     -801.611     345.504    -228.126
  H     -802.675     346.552    -229.524
  H     -803.660     345.624    -228.372
  H     -802.764     344.786    -229.677
  P     -801.537     344.204    -227.189
  C     -802.017     345.368    -224.923
  O     -802.519     344.542    -225.964
  C     -801.925     344.587    -223.612
  O     -803.227     344.112    -223.224
  C     -801.029     343.360    -223.674
  O     -799.670     343.725    -223.477
  C     -801.562     342.551    -222.498
  O     -800.996     343.055    -221.274
  C     -803.070     342.848    -222.542
  N     -805.751     338.510    -221.979
  C     -804.911     339.155    -221.144
  N     -804.191     340.266    -221.376
  C     -804.415     340.732    -222.619
  C     -805.242     340.177    -223.586
  C     -805.938     339.011    -223.224
  N     -806.797     338.357    -224.075
  N     -805.214     340.915    -224.743
  C     -804.430     341.937    -224.464
  N     -803.889     341.852    -223.208
  O     -800.165     343.746    -226.827
  O     -802.400     343.163    -228.046
  H     -800.028     342.936    -221.336
  H     -803.179     343.599    -228.431
  H     -804.799     338.712    -220.158
  H     -804.234     342.768    -225.130
  H     -803.487     342.966    -221.530
  H     -801.300     341.494    -222.560
  H     -801.174     342.789    -224.600
  H     -801.586     345.283    -222.834
  H     -802.665     346.244    -224.790
  H     -807.098     337.428    -223.802
  H     -806.832     338.656    -225.036
  H     -801.023     345.715    -225.226
  P     -798.483     342.925    -224.204
  C     -797.461     342.320    -221.927
  O     -798.018     341.819    -223.138
  O     -797.403     343.792    -224.759
  O     -799.223     342.055    -225.321
  H     -798.567     341.737    -225.984
  H     -797.188     341.501    -221.295
  H     -798.184     342.931    -221.428
  H     -796.593     342.905    -222.149

 6  7  8  9  10  11  12  13  14  15  25  28  32  33  34  35 0
 6-311+G(2d,p)
 ****
 36  39  40 0
 6-311+G(2d,p)
 ****
 1  2  3  4  5  16  17  18  19  20  21  22  23  24 0
 3-21G
 ****
 26  27  29  30  31  37  38  41  42  43  44  45  46  47 0
 3-21G
 ****
 48 0
 3-21G
 ****


