%nproc=1
%NoSave
%Mem=1900MB
#P OB98/GEN NMR

erre ene a

0 1
  C       71.391     318.798      34.585
  O       72.472     318.101      35.168
  H       71.636     319.012      33.541
  H       71.223     319.744      35.105
  H       70.479     318.193      34.612
  P       72.318     317.546      36.663
  C       70.993     315.402      36.123
  O       70.957     316.698      36.706
  C       69.911     314.523      36.741
  O       69.987     313.183      36.207
  C       70.026     314.375      38.254
  O       69.581     315.544      38.911
  C       69.171     313.137      38.477
  O       67.773     313.466      38.464
  C       69.537     312.280      37.242
  N       70.550     311.264      37.536
  C       70.328     310.487      38.667
  O       69.353     310.626      39.400
  N       71.303     309.568      38.956
  C       72.485     309.420      38.290
  O       73.418     308.743      38.711
  C       72.628     310.214      37.062
  C       71.674     311.098      36.752
  O       72.468     318.557      37.751
  O       73.448     316.411      36.759
  H       74.221     316.766      37.238
  H       67.635     314.059      37.701
  H       71.176     309.030      39.802
  H       73.524     310.080      36.468
  H       71.774     311.715      35.866
  H       68.646     311.769      36.853
  H       69.378     312.655      39.436
  H       71.061     314.143      38.531
  H       68.933     314.941      36.466
  H       71.978     314.961      36.318
  H       70.852     315.493      35.041
  P       70.069     315.896      40.393
  C       72.185     317.165      39.695
  O       71.666     316.029      40.371
  O       69.535     315.009      41.467
  O       69.589     317.410      40.615
  H       69.067     317.461      41.442
  H       73.254     317.151      39.743
  H       71.818     318.056      40.161
  H       71.874     317.144      38.671

 6  7  8  9  10  11  12  13  14  15  16  27  31  32  33  34  35 0
 6-311+G(2d,p)
 ****
 36  37 0
 6-311+G(2d,p)
 ****
 1  2  3  4  5  17  18  19  20  21  22  23  24  25 0
 3-21G
 ****
 26  28  29  30  38  39  40  41  42  43  44  45 0
 3-21G
 ****


