%nproc=1
%NoSave
%Mem=1900MB
#P OB98/GEN NMR

erre ene a

0 1
  C      -97.932     309.628      98.848
  O      -97.344     308.773      99.809
  H      -98.729     310.198      99.332
  H      -98.369     309.041      98.036
  H      -97.193     310.327      98.450
  P      -96.075     307.889      99.385
  C      -93.561     307.869      99.919
  O      -94.815     308.478     100.185
  C      -92.424     308.869     100.111
  O      -92.633     309.991      99.216
  C      -92.322     309.419     101.538
  O      -90.941     309.574     101.866
  C      -92.977     310.783     101.436
  O      -92.493     311.692     102.426
  C      -92.628     311.195     100.007
  N      -94.285     315.948     100.412
  C      -93.240     315.312     101.050
  N      -92.543     316.041     101.951
  N      -92.906     314.069     100.830
  C      -93.679     313.464      99.893
  C      -94.742     313.985      99.195
  C      -95.111     315.360      99.458
  O      -96.034     315.972      98.936
  N      -95.289     313.048      98.353
  C      -94.560     311.964      98.544
  N      -93.576     312.162      99.479
  O      -95.858     307.745      97.912
  O      -96.333     306.477     100.089
  H      -92.598     311.250     103.297
  H      -96.688     305.831      99.449
  H      -94.505     316.907     100.628
  H      -94.704     311.016      98.046
  H      -91.633     311.653      99.936
  H      -94.061     310.684     101.563
  H      -92.730     317.007     102.162
  H      -92.813     308.779     102.278
  H      -91.755     315.602     102.413
  H      -91.485     308.392      99.807
  H      -93.566     307.511      98.883
  H      -93.424     307.011     100.588
  P      -90.099     308.275     102.289
  C      -88.886     306.327     101.115
  O      -89.554     307.575     100.953
  O      -90.768     307.361     103.259
  O      -88.764     308.908     102.917
  H      -88.421     308.301     103.601
  H      -88.572     305.964     100.159
  H      -89.553     305.621     101.563
  H      -88.031     306.459     101.745

 6  7  8  9  10  11  12  13  14  15  26  29  33  34 0
 6-311+G(2d,p)
 ****
 36  38  39  40  41 0
 6-311+G(2d,p)
 ****
 1  2  3  4  5  16  17  18  19  20  21  22  23  24  25 0
 3-21G
 ****
 27  28  30  31  32  35  37  42  43  44  45  46  47 0
 3-21G
 ****
 48  49 0
 3-21G
 ****


