%nproc=1
%NoSave
%Mem=1900MB
#P OB98/GEN NMR

erre ene a

0 1
  C      -22.505      57.068      47.396
  O      -23.589      56.226      47.051
  H      -21.703      56.454      47.810
  H      -22.818      57.795      48.149
  H      -22.133      57.584      46.507
  P      -24.868      56.940      46.397
  C      -25.408      54.807      45.034
  O      -25.848      55.727      46.023
  C      -26.413      53.670      44.876
  O      -26.490      52.891      46.082
  C      -27.837      54.127      44.586
  O      -27.999      54.440      43.213
  C      -28.619      52.883      44.977
  O      -28.556      51.914      43.912
  C      -27.840      52.368      46.201
  N      -30.551      50.830      50.278
  C      -30.324      50.250      49.081
  N      -29.630      50.734      48.030
  C      -29.141      51.954      48.303
  C      -29.290      52.672      49.480
  C      -30.026      52.056      50.505
  N      -30.246      52.648      51.730
  N      -28.649      53.890      49.395
  C      -28.078      53.884      48.207
  N      -28.376      52.751      47.494
  O      -24.579      57.918      45.312
  O      -25.570      57.557      47.698
  H      -28.925      52.333      43.112
  H      -25.500      56.941      48.449
  H      -30.757      49.262      48.949
  H      -27.430      54.663      47.825
  H      -27.770      51.274      46.205
  H      -29.676      53.094      45.152
  H      -28.132      54.955      45.238
  H      -26.046      53.006      44.083
  H      -24.426      54.402      45.300
  H      -30.922      52.216      52.340
  H      -29.961      53.609      51.851
  H      -25.310      55.358      44.093
  P      -29.156      55.440      42.733
  C      -28.494      56.060      40.328
  O      -29.310      55.233      41.148
  O      -28.982      56.856      43.158
  O      -30.501      54.805      43.313
  H      -31.106      55.510      43.616
  H      -28.680      55.836      39.298
  H      -27.464      55.879      40.552
  H      -28.724      57.088      40.517

 6  7  8  9  10  11  12  13  14  15  25  28  32  33  34  35 0
 6-311+G(2d,p)
 ****
 36  39  40 0
 6-311+G(2d,p)
 ****
 1  2  3  4  5  16  17  18  19  20  21  22  23  24 0
 3-21G
 ****
 26  27  29  30  31  37  38  41  42  43  44  45  46  47 0
 3-21G
 ****
 48 0
 3-21G
 ****


