%nproc=1
%NoSave
%Mem=1900MB
#P OB98/GEN NMR

erre ene a

0 1
  C      304.911       9.424     552.837
  O      304.607       9.351     554.218
  P      303.706      10.523     554.844
  C      301.695       9.040     555.591
  O      302.175      10.059     554.724
  C      300.913       8.003     554.783
  O      301.817       7.201     553.987
  C      300.140       7.016     555.645
  O      298.933       7.583     556.130
  C      299.922       5.860     554.675
  O      298.785       6.107     553.833
  C      301.224       5.893     553.849
  N      302.152       4.830     554.233
  C      301.870       3.562     553.736
  O      300.884       3.325     553.032
  N      302.734       2.566     554.108
  C      303.795       2.701     554.950
  O      304.496       1.756     555.293
  C      304.034       4.060     555.472
  C      303.208       5.041     555.103
  O      303.828      11.712     553.776
  O      304.116      10.959     556.211
  H      298.612       5.277     553.341
  H      303.830      12.571     554.239
  H      302.558       1.649     553.737
  H      304.866       4.199     556.147
  H      303.355       6.049     555.482
  H      300.997       5.777     552.783
  H      299.739       4.911     555.191
  H      300.772       6.670     556.473
  H      300.235       8.532     554.099
  H      301.043       9.487     556.348
  H      302.545       8.571     556.100
  P      298.811       7.781     557.718
  C      297.712      10.147     557.570
  O      298.824       9.366     557.945
  O      300.254       7.275     558.194
  O      297.661       7.038     558.311
  H      300.946       7.471     557.540
  H      296.770       9.609     557.736
  H      297.795      10.416     556.510
  H      297.706      11.064     558.163
  H      305.513       8.584     552.559
  H      305.446      10.329     552.637
  H      304.003       9.414     552.271

 3  4  5  6  7  8  9  10  11  12  13  23  28  29  30  31  32 0
 6-311+G(2d,p)
 ****
 33  34 0
 6-311+G(2d,p)
 ****
 1  2  14  15  16  17  18  19  20  21  22  24  25  26 0
 3-21G
 ****
 27  35  36  37  38  39  40  41  42  43  44  45 0
 3-21G
 ****


