%nproc=1
%NoSave
%Mem=1900MB
#P OB98/GEN NMR

erre ene a

0 1
  C        9.813     247.914     205.259
  O       10.289     249.230     205.558
  P       11.132     249.976     204.415
  C       13.269     248.519     204.565
  O       12.158     248.920     203.774
  C       13.910     247.237     204.020
  O       14.492     247.465     202.705
  C       15.028     246.683     204.909
  O       14.997     245.252     204.805
  C       16.286     247.193     204.236
  O       17.432     246.442     204.627
  C       15.880     247.075     202.768
  N       20.591     247.835     200.958
  C       20.087     246.915     201.810
  N       18.818     246.795     202.262
  C       18.030     247.732     201.704
  C       18.403     248.737     200.831
  C       19.758     248.775     200.456
  N       20.278     249.728     199.611
  N       17.320     249.535     200.519
  C       16.315     249.018     201.199
  N       16.689     247.909     201.902
  O       12.078     250.965     205.247
  O       10.290     250.723     203.434
  H       18.208     246.801     204.151
  H       11.776     251.885     205.137
  H       20.795     246.179     202.183
  H       15.307     249.410     201.219
  H       15.963     246.044     202.395
  H       16.453     248.244     204.512
  H       14.962     246.978     205.961
  H       13.124     246.480     203.903
  H       12.952     248.349     205.597
  H       21.267     249.701     199.413
  H       19.678     250.462     199.266
  H       13.993     249.338     204.605
  P       14.740     244.441     206.162
  C       16.748     242.831     206.480
  O       16.184     244.097     206.762
  O       14.191     243.024     205.654
  O       13.788     245.106     207.100
  H       13.639     242.612     206.342
  H       17.815     242.957     206.284
  H       16.285     242.354     205.614
  H       16.621     242.185     207.354
  H        9.270     247.532     206.098
  H       10.644     247.273     205.050
  H        9.169     247.953     204.406

 3  4  5  6  7  8  9  10  11  12  22  25  29  30  31  32 0
 6-311+G(2d,p)
 ****
 33  36  37 0
 6-311+G(2d,p)
 ****
 1  2  13  14  15  16  17  18  19  20  21  23  24  26 0
 3-21G
 ****
 27  28  34  35  38  39  40  41  42  43  44  45  46  47  48 0
 3-21G
 ****


