%nproc=1
%NoSave
%Mem=1900MB
#P OB98/GEN NMR

erre ene a

0 1
  C      948.350    -896.640     185.887
  O      947.519    -896.900     187.034
  P      948.100    -897.910     188.141
  C      949.447    -896.190     189.588
  O      949.480    -897.280     188.647
  C      949.913    -896.680     190.970
  O      951.224    -897.200     190.871
  C      949.934    -895.590     192.005
  O      948.626    -895.300     192.494
  C      950.848    -896.220     193.056
  O      950.103    -897.040     193.979
  C      951.828    -897.080     192.197
  N      953.154    -896.520     192.132
  C      953.971    -896.750     193.263
  O      953.513    -897.370     194.200
  N      955.235    -896.240     193.262
  C      955.665    -895.530     192.257
  N      956.945    -895.060     192.330
  C      954.835    -895.260     191.075
  C      953.610    -895.760     191.074
  O      948.554    -899.160     187.289
  O      947.123    -898.270     189.214
  H      949.473    -896.430     194.428
  H      948.519    -900.000     187.819
  H      955.246    -894.670     190.249
  H      952.921    -895.610     190.236
  H      951.892    -898.080     192.610
  H      951.372    -895.450     193.656
  H      950.407    -894.680     191.598
  H      949.232    -897.500     191.276
  H      957.471    -895.250     193.157
  H      948.409    -895.840     189.636
  H      957.365    -894.520     191.576
  H      950.072    -895.380     189.233
  P      948.254    -893.780     192.719
  C      946.568    -893.900     190.790
  O      947.702    -893.260     191.290
  O      949.684    -893.060     192.785
  O      947.379    -893.450     193.911
  H      949.568    -892.130     193.052
  H      946.222    -893.370     189.885
  H      945.765    -893.940     191.506
  H      946.827    -894.940     190.466
  H      947.850    -895.957     185.232
  H      948.540    -897.557     185.369
  H      949.277    -896.213     186.208

 3  4  5  6  7  8  9  10  11  12  13  21  23  27  28  29  30  32 0
 6-311+G(2d,p)
 ****
 34  35 0
 6-311+G(2d,p)
 ****
 1  2  14  15  16  17  18  19  20  22  24  25  26 0
 3-21G
 ****
 31  33  36  37  38  39  40  41  42  43  44  45  46 0
 3-21G
 ****


