%nproc=1
%NoSave
%Mem=1900MB
#P OB98/GEN NMR

erre ene a

0 1
  C       86.182     166.807     912.136
  O       86.441     165.585     911.477
  H       87.107     167.389     912.179
  H       85.839     166.616     913.151
  H       85.430     167.368     911.584
  P       85.236     164.527     911.408
  C       86.450     163.961     909.167
  O       85.711     163.489     910.287
  C       86.800     162.802     908.233
  O       85.620     162.015     907.936
  C       87.348     163.235     906.861
  O       88.708     163.619     906.910
  C       87.152     161.945     906.089
  O       88.153     160.978     906.489
  C       85.746     161.504     906.572
  N       84.661     162.018     905.724
  C       84.213     161.175     904.700
  O       84.724     160.069     904.538
  N       83.226     161.637     903.858
  C       82.707     162.805     904.042
  N       81.735     163.195     903.169
  C       83.131     163.726     905.127
  C       84.104     163.275     905.923
  O       84.074     165.347     910.668
  O       84.831     163.911     912.704
  H       88.099     160.902     907.449
  H       83.321     164.734     910.438
  H       82.672     164.708     905.226
  H       84.464     163.888     906.732
  H       85.671     160.410     906.639
  H       87.235     162.054     905.011
  H       86.726     164.014     906.413
  H       87.493     162.150     908.753
  H       81.517     162.562     902.412
  H       87.379     164.432     909.548
  H       81.376     164.141     903.144
  H       85.861     164.711     908.623
  P       89.255     164.515     905.688
  C       90.717     165.754     907.433
  O       90.658     165.140     906.145
  O       88.262     165.784     905.661
  O       89.270     163.817     904.358
  H       88.108     166.094     904.740
  H       91.705     166.125     907.606
  H       90.470     165.032     908.184
  H       90.019     166.564     907.474

 6  7  8  9  10  11  12  13  14  15  16  26  30  31  32  33  35 0
 6-311+G(2d,p)
 ****
 37  38 0
 6-311+G(2d,p)
 ****
 1  2  3  4  5  17  18  19  20  21  22  23  24  25 0
 3-21G
 ****
 27  28  29  34  36  39  40  41  42  43  44  45  46 0
 3-21G
 ****


