%nproc=1
%NoSave
%Mem=1900MB
#P OB98/GEN NMR

erre ene a

0 1
  C      -57.725    -396.629     -20.011
  O      -59.107    -396.751     -19.733
  P      -59.531    -396.809     -18.180
  C      -58.725    -398.244     -16.150
  O      -58.780    -398.087     -17.556
  C      -59.441    -399.530     -15.749
  O      -59.123    -400.598     -16.666
  C      -59.087    -400.044     -14.360
  O      -59.830    -399.353     -13.368
  C      -59.445    -401.520     -14.477
  O      -60.869    -401.721     -14.303
  C      -59.023    -401.840     -15.918
  N      -56.255    -406.069     -15.728
  C      -57.578    -405.859     -15.387
  N      -58.277    -406.944     -14.988
  N      -58.170    -404.693     -15.451
  C      -57.341    -403.698     -15.854
  C      -56.013    -403.780     -16.196
  C      -55.386    -405.082     -16.178
  O      -54.247    -405.342     -16.558
  N      -55.505    -402.549     -16.539
  C      -56.537    -401.733     -16.431
  N      -57.681    -402.385     -16.041
  O      -61.066    -397.258     -18.240
  O      -59.325    -395.537     -17.416
  H      -61.064    -402.667     -14.365
  H      -61.654    -396.478     -18.152
  H      -55.856    -406.993     -15.675
  H      -56.511    -400.681     -16.639
  H      -59.703    -402.562     -16.401
  H      -58.950    -402.134     -13.714
  H      -57.890    -407.868     -14.892
  H      -58.009    -399.946     -14.175
  H      -59.252    -406.810     -14.733
  H      -60.527    -399.353     -15.825
  H      -59.218    -397.392     -15.669
  H      -57.675    -398.271     -15.831
  P      -59.579    -399.774     -11.837
  C      -59.624    -401.994     -10.490
  O      -59.676    -401.371     -11.763
  O      -60.920    -399.272     -11.100
  O      -58.368    -399.170     -11.214
  H      -60.695    -398.949     -10.206
  H      -60.203    -402.924     -10.531
  H      -60.036    -401.350      -9.706
  H      -58.582    -402.222     -10.252
  H      -57.575    -396.601     -21.070
  H      -57.203    -397.467     -19.599
  H      -57.352    -395.726     -19.574

 3  4  5  6  7  8  9  10  11  12  23  26  30  31 0
 6-311+G(2d,p)
 ****
 33  35  36  37  38 0
 6-311+G(2d,p)
 ****
 1  2  13  14  15  16  17  18  19  20  21  22  24  25 0
 3-21G
 ****
 27  28  29  32  34  39  40  41  42  43  44  45  46  47  48  49 0
 3-21G
 ****


