%nproc=1
%NoSave
%Mem=1900MB
#P OB98/GEN NMR

erre ene a

0 1
  C     -180.868    -971.975     375.929
  O     -180.457    -970.820     375.231
  P     -181.430    -969.626     374.839
  C     -181.732    -968.447     372.526
  O     -181.694    -969.665     373.254
  C     -180.859    -968.527     371.268
  O     -179.459    -968.664     371.683
  C     -181.174    -969.783     370.436
  O     -181.190    -969.558     369.029
  C     -180.187    -970.821     370.958
  O     -179.957    -971.911     370.064
  C     -178.960    -969.943     371.262
  N     -175.606    -973.562     372.539
  C     -176.115    -973.252     371.288
  N     -175.855    -974.127     370.294
  N     -176.859    -972.188     371.054
  C     -177.159    -971.479     372.173
  C     -176.705    -971.695     373.456
  C     -175.859    -972.835     373.694
  O     -175.466    -973.218     374.801
  N     -177.245    -970.783     374.333
  C     -178.059    -970.056     373.602
  N     -178.067    -970.465     372.274
  O     -181.149    -968.290     375.468
  O     -182.846    -970.156     375.438
  H     -179.723    -971.536     369.208
  H     -183.347    -969.356     375.739
  H     -175.105    -974.437     372.669
  H     -178.693    -969.247     373.966
  H     -178.352    -969.794     370.375
  H     -180.591    -971.236     371.878
  H     -175.415    -975.024     370.472
  H     -182.192    -970.141     370.654
  H     -176.415    -974.062     369.446
  H     -180.952    -967.603     370.682
  H     -181.355    -967.665     373.199
  H     -182.762    -968.189     372.259
  P     -182.214    -970.139     367.925
  C     -182.025    -971.739     365.933
  O     -181.517    -971.393     367.200
  O     -182.248    -969.032     366.764
  O     -183.602    -970.405     368.436
  H     -183.164    -968.952     366.430
  H     -181.692    -972.759     365.668
  H     -181.658    -971.035     365.181
  H     -183.128    -971.756     365.949
  H     -180.029    -972.624     376.069
  H     -181.622    -972.483     375.365
  H     -181.264    -971.694     376.882

 3  4  5  6  7  8  9  10  11  12  23  26  30  31 0
 6-311+G(2d,p)
 ****
 33  35  36  37  38 0
 6-311+G(2d,p)
 ****
 1  2  13  14  15  16  17  18  19  20  21  22  24  25 0
 3-21G
 ****
 27  28  29  32  34  39  40  41  42  43  44  45  46  47  48  49 0
 3-21G
 ****


