%nproc=1
%NoSave
%Mem=1900MB
#P OB98/GEN NMR

erre ene a

0 1
  C      -79.065     326.031    -109.790
  O      -78.007     325.824    -110.713
  P      -76.467     325.876    -110.255
  C      -75.284     323.814    -111.278
  O      -75.647     325.176    -111.441
  C      -74.829     323.222    -112.613
  O      -75.984     323.089    -113.481
  C      -73.784     324.064    -113.355
  O      -72.905     323.155    -114.030
  C      -74.624     324.840    -114.354
  O      -73.865     325.306    -115.459
  C      -75.690     323.798    -114.702
  N      -76.898     324.396    -115.265
  C      -76.832     324.880    -116.573
  O      -75.790     324.823    -117.219
  N      -77.964     325.420    -117.128
  C      -79.041     325.551    -116.412
  N      -80.151     326.042    -117.024
  C      -79.115     325.154    -114.991
  C      -78.027     324.570    -114.500
  O      -76.201     325.319    -108.898
  O      -76.055     327.410    -110.426
  H      -73.412     324.542    -115.865
  H      -76.288     327.960    -109.637
  H      -80.025     325.305    -114.429
  H      -78.001     324.223    -113.477
  H      -75.282     323.058    -115.403
  H      -75.067     325.711    -113.860
  H      -73.200     324.702    -112.685
  H      -74.442     322.212    -112.427
  H      -80.111     326.138    -118.034
  H      -76.162     323.263    -110.929
  H      -81.078     325.865    -116.645
  H      -74.498     323.729    -110.520
  P      -71.448     322.900    -113.402
  C      -71.631     320.316    -113.529
  O      -70.930     321.474    -113.920
  O      -71.813     322.584    -111.866
  O      -70.483     324.037    -113.469
  H      -71.043     322.806    -111.308
  H      -71.144     319.446    -113.977
  H      -72.667     320.354    -113.886
  H      -71.616     320.203    -112.441
  H      -80.003     325.954    -110.299
  H      -78.974     327.005    -109.355
  H      -79.016     325.290    -109.019

 3  4  5  6  7  8  9  10  11  12  13  23  27  28  29  30  32 0
 6-311+G(2d,p)
 ****
 34  35 0
 6-311+G(2d,p)
 ****
 1  2  14  15  16  17  18  19  20  21  22  24  25  26 0
 3-21G
 ****
 31  33  36  37  38  39  40  41  42  43  44  45  46 0
 3-21G
 ****


