%nproc=1
%NoSave
%Mem=1900MB
#P OB98/GEN NMR

erre ene a

0 1
  C     -191.178    -891.850     330.448
  O     -191.120    -892.770     329.341
  P     -190.000    -893.920     329.360
  C     -188.161    -892.510     328.152
  O     -189.002    -893.660     328.142
  C     -186.961    -892.700     327.222
  O     -186.229    -893.920     327.513
  C     -187.351    -892.810     325.731
  O     -187.547    -891.530     325.142
  C     -186.109    -893.460     325.147
  O     -185.090    -892.480     324.939
  C     -185.705    -894.430     326.263
  N     -185.224    -898.680     323.525
  C     -184.512    -897.490     323.473
  N     -183.532    -897.410     322.545
  N     -184.751    -896.480     324.233
  C     -185.758    -896.670     325.122
  C     -186.540    -897.810     325.274
  C     -186.278    -898.930     324.412
  O     -186.884    -900.000     324.399
  N     -187.464    -897.640     326.287
  C     -187.237    -896.430     326.755
  N     -186.228    -895.770     326.055
  O     -190.816    -895.230     328.899
  O     -189.353    -894.120     330.700
  H     -185.081    -891.910     325.742
  H     -190.412    -896.020     329.258
  H     -185.007    -899.430     322.904
  H     -187.772    -895.960     327.564
  H     -184.633    -894.530     326.370
  H     -186.301    -893.930     324.177
  H     -183.263    -898.190     321.966
  H     -188.234    -893.470     325.601
  H     -182.987    -896.570     322.512
  H     -186.303    -891.830     327.328
  H     -187.799    -892.310     329.173
  H     -188.761    -891.630     327.867
  P     -188.950    -890.770     325.419
  C     -189.804    -891.080     322.997
  O     -189.417    -890.180     324.011
  O     -188.475    -889.490     326.263
  O     -189.951    -891.590     326.168
  H     -189.179    -889.220     326.865
  H     -190.249    -890.510     322.162
  H     -190.547    -891.800     323.362
  H     -188.930    -891.630     322.595
  H     -191.971    -891.149     330.288
  H     -190.249    -891.325     330.525
  H     -191.358    -892.392     331.353

 3  4  5  6  7  8  9  10  11  12  23  26  30  31 0
 6-311+G(2d,p)
 ****
 33  35  36  37  38 0
 6-311+G(2d,p)
 ****
 1  2  13  14  15  16  17  18  19  20  21  22  24  25 0
 3-21G
 ****
 27  28  29  32  34  39  40  41  42  43  44  45  46  47  48  49 0
 3-21G
 ****


