%nproc=1
%NoSave
%Mem=1900MB
#P OB98/GEN NMR

erre ene a

0 1
  C     -117.977      -9.415    -298.731
  O     -119.109      -8.543    -298.751
  P     -118.945      -7.054    -298.182
  C     -120.339      -5.974    -300.061
  O     -120.211      -6.194    -298.660
  C     -121.792      -5.681    -300.434
  O     -122.627      -6.847    -300.285
  C     -122.433      -4.615    -299.561
  O     -121.957      -3.325    -299.905
  C     -123.910      -4.855    -299.831
  O     -124.322      -4.218    -301.051
  C     -123.965      -6.391    -299.993
  N     -124.519      -7.071    -298.833
  C     -125.903      -7.278    -298.845
  O     -126.584      -6.858    -299.780
  N     -126.478      -7.941    -297.789
  C     -125.737      -8.353    -296.806
  N     -126.360      -9.007    -295.789
  C     -124.277      -8.145    -296.750
  C     -123.742      -7.496    -297.782
  O     -117.616      -6.415    -298.417
  O     -119.225      -7.241    -296.613
  H     -124.320      -3.258    -300.867
  H     -118.716      -6.569    -296.120
  H     -123.703      -8.513    -295.911
  H     -122.676      -7.298    -297.820
  H     -124.579      -6.659    -300.862
  H     -124.540      -4.457    -299.030
  H     -122.212      -4.820    -298.505
  H     -121.817      -5.367    -301.486
  H     -127.364      -9.127    -295.847
  H     -119.986      -6.857    -300.600
  H     -125.865      -9.408    -295.006
  H     -119.682      -5.147    -300.350
  P     -121.032      -2.564    -298.841
  C     -120.161      -0.819    -300.546
  O     -120.855      -1.053    -299.337
  O     -119.586      -3.209    -299.097
  O     -121.450      -2.730    -297.415
  H     -119.097      -3.258    -298.256
  H     -120.399       0.191    -300.895
  H     -120.450      -1.534    -301.318
  H     -119.084      -0.883    -300.370
  H     -118.251     -10.364    -299.142
  H     -117.645      -9.546    -297.722
  H     -117.188      -8.988    -299.314

 3  4  5  6  7  8  9  10  11  12  13  23  27  28  29  30  32 0
 6-311+G(2d,p)
 ****
 34  35 0
 6-311+G(2d,p)
 ****
 1  2  14  15  16  17  18  19  20  21  22  24  25  26 0
 3-21G
 ****
 31  33  36  37  38  39  40  41  42  43  44  45  46 0
 3-21G
 ****


