%nproc=1
%NoSave
%Mem=1900MB
#P OB98/GEN NMR

erre ene a

0 1
  C     -297.645     567.893    -351.956
  O     -296.582     567.196    -352.560
  P     -295.211     566.962    -351.781
  C     -294.667     565.321    -353.686
  O     -294.174     566.367    -352.858
  C     -293.514     564.669    -354.463
  O     -292.449     564.259    -353.559
  C     -293.898     563.400    -355.195
  O     -294.815     563.526    -356.276
  C     -292.531     562.814    -355.510
  O     -291.957     563.427    -356.666
  C     -291.731     563.194    -354.232
  N     -291.530     562.043    -353.356
  C     -290.338     561.345    -353.532
  O     -289.486     561.648    -354.363
  N     -290.163     560.250    -352.736
  C     -291.067     559.758    -351.829
  O     -290.857     558.742    -351.179
  C     -292.313     560.526    -351.694
  C     -292.495     561.618    -352.448
  O     -295.313     566.164    -350.513
  O     -294.646     568.449    -351.562
  H     -292.676     563.557    -357.322
  H     -294.494     568.942    -352.384
  H     -289.316     559.727    -352.861
  H     -293.044     560.174    -350.973
  H     -293.397     562.201    -352.370
  H     -290.748     563.602    -354.505
  H     -292.589     561.740    -355.714
  H     -294.381     562.720    -354.487
  H     -293.093     565.423    -355.136
  H     -295.380     565.746    -354.398
  H     -295.199     564.587    -353.068
  P     -295.663     562.296    -356.850
  C     -297.243     563.826    -358.223
  O     -296.320     562.754    -358.238
  O     -296.525     561.562    -355.875
  O     -294.495     561.305    -357.352
  H     -294.804     560.383    -357.271
  H     -297.628     563.961    -359.237
  H     -296.734     564.756    -357.900
  H     -298.086     563.616    -357.557
  H     -298.470     567.944    -352.636
  H     -297.326     568.884    -351.707
  H     -297.947     567.381    -351.066

 3  4  5  6  7  8  9  10  11  12  13  23  28  29  30  31  32 0
 6-311+G(2d,p)
 ****
 33  34 0
 6-311+G(2d,p)
 ****
 1  2  14  15  16  17  18  19  20  21  22  24  25  26  27 0
 3-21G
 ****
 35  36  37  38  39  40  41  42  43  44  45 0
 3-21G
 ****


