%nproc=1
%NoSave
%Mem=1900MB
#P OB98/GEN NMR

erre ene a

0 1
  C      218.269     851.674      52.010
  O      219.512     852.265      51.606
  P      219.894     852.195      50.048
  C      221.252     849.977      50.169
  O      220.120     850.657      49.647
  C      221.336     848.564      49.580
  O      220.152     847.806      49.871
  C      221.444     848.551      48.067
  O      222.767     848.865      47.654
  C      221.008     847.133      47.722
  O      222.134     846.224      47.696
  C      220.038     846.777      48.875
  N      218.664     846.624      48.421
  C      218.046     845.414      48.744
  O      218.665     844.542      49.358
  N      216.750     845.213      48.345
  C      216.142     846.127      47.649
  N      214.852     845.877      47.271
  C      216.764     847.405      47.261
  C      218.021     847.595      47.677
  O      221.367     852.807      50.005
  O      218.952     852.948      49.162
  H      222.744     846.582      47.020
  H      221.508     853.286      49.167
  H      216.220     848.145      46.682
  H      218.562     848.499      47.440
  H      220.351     845.841      49.346
  H      220.548     847.085      46.731
  H      220.739     849.271      47.632
  H      222.209     848.047      50.021
  H      214.456     844.977      47.554
  H      221.192     849.923      51.262
  H      214.291     846.524      46.733
  H      222.153     850.554      49.937
  P      223.021     850.279      46.948
  C      223.861     849.062      44.851
  O      222.921     849.982      45.370
  O      224.605     850.467      47.154
  O      222.246     851.445      47.455
  H      224.871     851.355      46.844
  H      223.556     848.787      43.832
  H      223.894     848.156      45.444
  H      224.853     849.528      44.805
  H      218.144     851.793      53.066
  H      218.274     850.632      51.766
  H      217.462     852.156      51.499

 3  4  5  6  7  8  9  10  11  12  13  21  23  27  28  29  30  32 0
 6-311+G(2d,p)
 ****
 34  35 0
 6-311+G(2d,p)
 ****
 1  2  14  15  16  17  18  19  20  22  24  25  26 0
 3-21G
 ****
 31  33  36  37  38  39  40  41  42  43  44  45  46 0
 3-21G
 ****


