%nproc=1
%NoSave
%Mem=1900MB
#P OB98/GEN NMR

erre ene a

0 1
  C       11.249     -97.845      16.540
  O       10.914     -97.332      17.819
  H       10.942     -97.121      15.780
  H       10.716     -98.782      16.372
  H       12.329     -98.008      16.462
  P       11.566     -98.065      19.088
  C        9.785     -99.947      19.279
  O       10.358     -98.787      19.867
  C        9.584    -101.033      20.335
  O        8.818    -102.133      19.788
  C       10.882    -101.633      20.871
  O       11.437    -100.833      21.908
  C       10.369    -102.957      21.424
  O        9.704    -102.737      22.689
  C        9.340    -103.369      20.361
  N       10.491    -108.095      18.911
  C       10.020    -107.626      20.128
  N        9.832    -108.556      21.092
  N        9.753    -106.368      20.374
  C       10.009    -105.553      19.315
  C       10.486    -105.896      18.070
  C       10.758    -107.293      17.807
  O       11.162    -107.754      16.741
  N       10.615    -104.799      17.266
  C       10.240    -103.788      18.028
  N        9.870    -104.194      19.289
  O       11.952     -96.838      20.044
  O       12.752     -98.920      18.793
  H        9.432    -103.611      23.026
  H       12.913     -96.678      19.979
  H       10.689    -109.073      18.778
  H       10.216    -102.752      17.717
  H        8.491    -103.909      20.791
  H       11.169    -103.676      21.607
  H       10.038    -109.536      20.977
  H       11.611    -101.828      20.072
  H        9.487    -108.234      21.992
  H        8.989    -100.600      21.151
  H       10.458    -100.318      18.500
  H        8.825     -99.680      18.832
  P       13.041    -100.727      22.001
  C       13.399    -103.143      22.860
  O       13.515    -101.761      23.138
  O       13.258     -99.292      22.684
  O       13.764    -100.823      20.700
  H       13.656     -98.677      22.039
  H       13.749    -103.706      23.700
  H       13.986    -103.384      21.999
  H       12.374    -103.384      22.671

 6  7  8  9  10  11  12  13  14  15  26  29  33  34 0
 6-311+G(2d,p)
 ****
 36  38  39  40  41 0
 6-311+G(2d,p)
 ****
 1  2  3  4  5  16  17  18  19  20  21  22  23  24  25 0
 3-21G
 ****
 27  28  30  31  32  35  37  42  43  44  45  46  47 0
 3-21G
 ****
 48  49 0
 3-21G
 ****


