%nproc=1
%NoSave
%Mem=1900MB
#P OB98/GEN NMR

erre ene a

0 1
  C       96.732    -280.576    -176.959
  O       97.568    -281.380    -176.121
  P       99.087    -281.039    -175.774
  C      101.331    -280.825    -177.134
  O       99.946    -281.168    -177.121
  C      101.852    -280.453    -178.537
  O      101.815    -281.623    -179.396
  C      100.938    -279.415    -179.186
  O      101.094    -278.037    -178.889
  C      100.989    -279.737    -180.671
  O      101.973    -278.967    -181.373
  C      101.366    -281.223    -180.700
  N       99.645    -284.648    -184.096
  C      100.844    -283.966    -184.073
  N      101.686    -284.197    -185.109
  N      101.185    -283.136    -183.124
  C      100.227    -282.936    -182.200
  C       98.987    -283.538    -182.116
  C       98.636    -284.505    -183.137
  O       97.590    -285.151    -183.202
  N       98.272    -283.077    -181.048
  C       99.060    -282.179    -180.484
  N      100.270    -282.068    -181.145
  O       99.641    -281.714    -174.559
  O       99.066    -279.452    -175.484
  H      101.834    -279.094    -182.328
  H       99.748    -279.282    -174.803
  H       99.438    -285.296    -184.834
  H       98.815    -281.594    -179.605
  H      102.195    -281.408    -181.388
  H      100.025    -279.516    -181.157
  H      101.428    -284.724    -185.929
  H       99.911    -279.650    -178.872
  H      102.456    -283.537    -185.214
  H      102.895    -280.141    -178.489
  H      101.870    -281.696    -176.746
  H      101.518    -279.998    -176.443
  P      100.371    -277.235    -177.707
  C       98.533    -275.456    -177.468
  O       99.276    -276.274    -178.370
  O      101.488    -276.196    -177.208
  O       99.875    -278.073    -176.566
  H      101.247    -275.835    -176.337
  H       97.636    -275.103    -177.975
  H       99.147    -274.602    -177.170
  H       98.242    -276.027    -176.581
  H       95.763    -281.024    -177.030
  H       97.166    -280.507    -177.935
  H       96.642    -279.596    -176.539

 3  4  5  6  7  8  9  10  11  12  23  26  30  31 0
 6-311+G(2d,p)
 ****
 33  35  36  37  38 0
 6-311+G(2d,p)
 ****
 1  2  13  14  15  16  17  18  19  20  21  22  24  25 0
 3-21G
 ****
 27  28  29  32  34  39  40  41  42  43  44  45  46  47  48  49 0
 3-21G
 ****


