%nproc=1
%NoSave
%Mem=1900MB
#P OB98/GEN NMR

erre ene a

0 1
  C      202.939     -36.603     713.504
  O      203.806     -37.092     712.471
  P      205.392     -36.806     712.480
  C      206.020     -38.568     714.263
  O      205.965     -37.176     713.938
  C      207.439     -39.021     714.589
  O      207.852     -38.526     715.887
  C      207.628     -40.532     714.653
  O      207.726     -41.075     713.345
  C      208.895     -40.649     715.495
  O      210.056     -40.430     714.683
  C      208.710     -39.502     716.497
  N      209.316     -42.723     720.431
  C      210.064     -42.496     719.323
  N      209.834     -41.622     718.313
  C      208.704     -40.921     718.549
  C      207.847     -41.039     719.632
  C      208.186     -41.995     720.608
  N      207.421     -42.230     721.722
  N      206.779     -40.169     719.516
  C      207.016     -39.525     718.383
  N      208.159     -39.936     717.770
  O      205.773     -35.445     711.997
  O      206.009     -37.946     711.536
  H      210.822     -40.340     715.279
  H      206.841     -37.618     711.131
  H      210.963     -43.096     719.235
  H      206.377     -38.746     717.979
  H      209.663     -38.997     716.709
  H      209.005     -41.638     715.964
  H      206.786     -40.992     715.190
  H      208.117     -38.584     713.847
  H      205.639     -39.137     713.402
  H      207.711     -42.959     722.367
  H      206.548     -41.732     721.839
  H      205.359     -38.746     715.126
  P      206.866     -42.364     712.942
  C      205.127     -41.224     711.435
  O      205.365     -41.876     712.672
  O      207.003     -43.542     713.851
  O      207.381     -42.719     711.461
  H      207.303     -43.677     711.318
  H      205.460     -40.185     711.502
  H      204.058     -41.252     711.229
  H      205.654     -41.725     710.621
  H      201.934     -36.908     713.300
  H      202.989     -35.535     713.535
  H      203.248     -37.002     714.448

 3  4  5  6  7  8  9  10  11  12  22  25  29  30  31  32 0
 6-311+G(2d,p)
 ****
 33  36  37 0
 6-311+G(2d,p)
 ****
 1  2  13  14  15  16  17  18  19  20  21  23  24  26 0
 3-21G
 ****
 27  28  34  35  38  39  40  41  42  43  44  45  46  47  48 0
 3-21G
 ****


