%nproc=1
%NoSave
%Mem=1900MB
#P OB98/GEN NMR

erre ene a

0 1
  C      566.882     534.010     543.993
  O      566.530     532.883     544.777
  P      566.182     533.137     546.328
  C      567.571     534.261     548.232
  O      567.588     533.431     547.061
  C      568.522     533.716     549.300
  O      568.041     532.420     549.748
  C      569.964     533.557     548.835
  O      570.825     533.896     549.925
  C      570.093     532.076     548.568
  O      571.441     531.622     548.655
  C      569.133     531.494     549.631
  N      568.673     530.145     549.284
  C      568.985     529.119     550.171
  O      569.711     529.343     551.147
  N      568.544     527.845     549.905
  C      567.917     527.607     548.790
  N      567.483     526.343     548.578
  C      567.656     528.649     547.771
  C      568.036     529.881     548.094
  O      565.787     531.681     546.855
  O      565.105     534.142     546.571
  H      571.444     530.647     548.558
  H      565.113     531.736     547.552
  H      567.167     528.389     546.844
  H      567.872     530.712     547.420
  H      569.650     531.434     550.611
  H      569.718     531.833     547.555
  H      570.206     534.184     547.972
  H      568.472     534.386     550.176
  H      567.685     525.637     549.278
  H      566.561     534.259     548.635
  H      566.994     526.057     547.734
  H      567.847     535.274     547.950
  P      572.321     534.366     549.584
  C      574.489     533.140     548.941
  O      573.095     533.032     549.161
  O      572.916     534.632     551.062
  O      572.498     535.568     548.713
  H      573.819     534.984     550.988
  H      574.905     532.140     548.803
  H      574.977     533.612     549.814
  H      574.671     533.731     548.050
  H      567.086     533.697     542.990
  H      567.753     534.474     544.406
  H      566.072     534.710     543.991

 3  4  5  6  7  8  9  10  11  12  13  21  23  27  28  29  30  32 0
 6-311+G(2d,p)
 ****
 34  35 0
 6-311+G(2d,p)
 ****
 1  2  14  15  16  17  18  19  20  22  24  25  26 0
 3-21G
 ****
 31  33  36  37  38  39  40  41  42  43  44  45  46 0
 3-21G
 ****


