%nproc=1
%NoSave
%Mem=1900MB
#P OB98/GEN NMR

erre ene a

0 1
  C     -643.128     -12.686    -233.988
  O     -642.948     -11.865    -232.849
  P     -642.861     -12.594    -231.424
  C     -643.711     -10.304    -230.529
  O     -642.844     -11.420    -230.334
  C     -644.134      -9.709    -229.192
  O     -644.866     -10.694    -228.438
  C     -642.988      -9.281    -228.296
  O     -642.456      -8.044    -228.727
  C     -643.661      -9.224    -226.935
  O     -644.277      -7.943    -226.719
  C     -644.726     -10.345    -227.044
  N     -644.393     -11.506    -226.232
  C     -644.108     -11.247    -224.875
  O     -644.118     -10.084    -224.457
  N     -643.776     -12.300    -224.064
  C     -643.726     -13.501    -224.548
  N     -643.394     -14.506    -223.696
  C     -644.004     -13.819    -225.968
  C     -644.325     -12.773    -226.740
  O     -641.360     -13.155    -231.389
  O     -643.876     -13.673    -231.210
  H     -643.563      -7.281    -226.846
  H     -641.285     -13.930    -230.811
  H     -643.955     -14.833    -226.319
  H     -644.540     -12.918    -227.797
  H     -645.704      -9.969    -226.709
  H     -642.947      -9.377    -226.124
  H     -642.197     -10.056    -228.292
  H     -644.817      -8.860    -229.386
  H     -643.205     -14.262    -222.727
  H     -644.598     -10.615    -231.082
  H     -643.353     -15.476    -223.978
  H     -643.175      -9.547    -231.135
  P     -640.865      -7.955    -228.966
  C     -640.928      -5.403    -228.795
  O     -640.638      -6.513    -229.614
  O     -640.650      -8.923    -230.231
  O     -639.986      -8.329    -227.823
  H     -639.703      -9.038    -230.411
  H     -640.581      -4.486    -229.290
  H     -640.429      -5.482    -227.829
  H     -642.019      -5.333    -228.646
  H     -643.169     -12.075    -234.865
  H     -644.042     -13.234    -233.892
  H     -642.309     -13.370    -234.068

 3  4  5  6  7  8  9  10  11  12  13  21  23  27  28  29  30  32 0
 6-311+G(2d,p)
 ****
 34  35 0
 6-311+G(2d,p)
 ****
 1  2  14  15  16  17  18  19  20  22  24  25  26 0
 3-21G
 ****
 31  33  36  37  38  39  40  41  42  43  44  45  46 0
 3-21G
 ****


