%nproc=1
%NoSave
%Mem=1900MB
#P OB98/GEN NMR

erre ene a

0 1
  C     -138.829       8.449     -82.699
  O     -139.760       8.669     -83.751
  P     -141.323       8.619     -83.382
  C     -142.944       6.750     -82.588
  O     -141.640       7.081     -83.054
  C     -143.432       5.458     -83.236
  O     -142.514       4.382     -82.955
  C     -144.789       4.979     -82.744
  O     -145.861       5.645     -83.390
  C     -144.747       3.518     -83.160
  O     -145.039       3.401     -84.566
  C     -143.283       3.150     -82.894
  N     -141.433      -0.971     -80.502
  C     -141.557      -0.671     -81.812
  N     -142.071       0.444     -82.371
  C     -142.520       1.286     -81.424
  C     -142.496       1.098     -80.051
  C     -141.910      -0.091     -79.589
  N     -141.757      -0.382     -78.252
  N     -143.049       2.181     -79.405
  C     -143.393       3.011     -80.364
  N     -143.084       2.521     -81.603
  O     -142.035       8.848     -84.797
  O     -141.762       9.612     -82.362
  H     -144.810       2.488     -84.827
  H     -142.937       9.198     -84.664
  H     -141.187      -1.423     -82.504
  H     -143.856       3.977     -80.211
  H     -142.875       2.478     -83.656
  H     -145.479       2.902     -82.630
  H     -144.863       5.046     -81.651
  H     -143.450       5.612     -84.323
  H     -143.631       7.561     -82.845
  H     -141.167      -1.161     -78.002
  H     -141.929       0.359     -77.581
  H     -142.918       6.645     -81.499
  P     -147.293       5.584     -82.665
  C     -148.850       3.606     -82.021
  O     -147.787       4.070     -82.832
  O     -148.237       6.414     -83.656
  O     -147.299       6.137     -81.279
  H     -148.996       6.788     -83.171
  H     -149.257       2.694     -82.464
  H     -149.650       4.348     -81.954
  H     -148.477       3.375     -81.018
  H     -137.833       8.511     -83.085
  H     -138.989       7.478     -82.278
  H     -138.964       9.193     -81.942

 3  4  5  6  7  8  9  10  11  12  22  25  29  30  31  32 0
 6-311+G(2d,p)
 ****
 33  36  37 0
 6-311+G(2d,p)
 ****
 1  2  13  14  15  16  17  18  19  20  21  23  24  26 0
 3-21G
 ****
 27  28  34  35  38  39  40  41  42  43  44  45  46  47  48 0
 3-21G
 ****


