%nproc=1
%NoSave
%Mem=1900MB
#P OB98/GEN NMR

erre ene a

0 1
  C      195.475     -20.992     -47.081
  O      196.584     -20.230     -47.511
  H      195.389     -20.904     -45.995
  H      195.626     -22.043     -47.337
  H      194.552     -20.625     -47.538
  P      196.767     -20.057     -49.095
  C      197.058     -21.851     -50.948
  O      197.397     -21.431     -49.635
  C      197.421     -23.320     -51.141
  O      196.521     -24.164     -50.388
  C      197.342     -23.800     -52.587
  O      198.518     -23.474     -53.316
  C      197.224     -25.300     -52.377
  O      198.516     -25.849     -52.049
  C      196.292     -25.374     -51.161
  N      192.356     -28.504     -51.795
  C      193.666     -28.783     -51.457
  N      193.975     -30.085     -51.270
  N      194.594     -27.872     -51.319
  C      194.143     -26.615     -51.547
  C      192.871     -26.212     -51.885
  C      191.854     -27.230     -52.027
  O      190.674     -27.035     -52.301
  N      192.796     -24.852     -52.023
  C      194.023     -24.432     -51.789
  N      194.882     -25.465     -51.502
  O      197.986     -19.022     -49.217
  O      195.565     -19.566     -49.830
  H      198.412     -26.818     -52.022
  H      197.830     -18.442     -49.987
  H      191.684     -29.245     -51.899
  H      194.340     -23.399     -51.813
  H      196.520     -26.228     -50.512
  H      196.870     -25.823     -53.266
  H      193.321     -30.840     -51.409
  H      196.439     -23.429     -53.086
  H      194.920     -30.311     -50.991
  H      198.429     -23.475     -50.738
  H      197.611     -21.244     -51.673
  H      195.985     -21.703     -51.104
  P      198.482     -23.670     -54.911
  C      198.169     -25.835     -56.311
  O      198.747     -25.233     -55.158
  O      199.847     -22.984     -55.388
  O      197.291     -23.089     -55.591
  H      199.775     -22.715     -56.324
  H      198.431     -26.872     -56.341
  H      198.537     -25.348     -57.190
  H      197.104     -25.737     -56.269

 6  7  8  9  10  11  12  13  14  15  26  29  33  34 0
 6-311+G(2d,p)
 ****
 36  38  39  40  41 0
 6-311+G(2d,p)
 ****
 1  2  3  4  5  16  17  18  19  20  21  22  23  24  25 0
 3-21G
 ****
 27  28  30  31  32  35  37  42  43  44  45  46  47 0
 3-21G
 ****
 48  49 0
 3-21G
 ****


