%nproc=1
%NoSave
%Mem=1900MB
#P OB98/GEN NMR

erre ene a

0 1
  C     -508.631     618.389     342.817
  O     -509.632     617.496     343.319
  P     -509.223     615.971     343.580
  C     -510.631     615.255     345.652
  O     -510.470     615.205     344.239
  C     -512.033     614.785     346.051
  O     -513.049     615.697     345.563
  C     -512.407     613.427     345.491
  O     -511.884     612.377     346.280
  C     -513.933     613.472     345.607
  O     -514.321     613.173     346.965
  C     -514.243     614.932     345.267
  N     -517.346     613.488     341.457
  C     -517.220     613.055     342.723
  N     -516.356     613.475     343.681
  C     -515.578     614.461     343.210
  C     -515.597     615.007     341.938
  C     -516.527     614.485     341.033
  N     -516.654     614.936     339.736
  N     -514.643     615.999     341.811
  C     -514.073     616.065     342.999
  N     -514.600     615.148     343.879
  O     -508.178     616.078     344.793
  O     -508.608     615.295     342.399
  H     -513.993     612.277     347.166
  H     -507.487     615.394     344.705
  H     -517.897     612.258     343.018
  H     -513.280     616.743     343.283
  H     -515.057     615.341     345.881
  H     -514.422     612.734     344.969
  H     -512.127     613.338     344.429
  H     -512.092     614.760     347.146
  H     -510.451     616.270     346.018
  H     -517.365     614.525     339.152
  H     -516.065     615.695     339.415
  H     -509.863     614.618     346.117
  P     -511.408     611.047     345.515
  C     -509.255     610.686     346.942
  O     -510.548     610.213     346.583
  O     -510.310     611.600     344.484
  O     -512.503     610.301     344.829
  H     -510.303     611.043     343.679
  H     -508.955     610.202     347.872
  H     -509.270     611.764     347.098
  H     -508.537     610.430     346.151
  H     -509.052     619.365     342.695
  H     -508.277     618.033     341.872
  H     -507.816     618.436     343.509

 3  4  5  6  7  8  9  10  11  12  22  25  29  30  31  32 0
 6-311+G(2d,p)
 ****
 33  36  37 0
 6-311+G(2d,p)
 ****
 1  2  13  14  15  16  17  18  19  20  21  23  24  26 0
 3-21G
 ****
 27  28  34  35  38  39  40  41  42  43  44  45  46  47  48 0
 3-21G
 ****


