%nproc=1
%NoSave
%Mem=1900MB
#P OB98/GEN NMR

erre ene a

0 1
  C      183.138    -302.546     232.213
  O      183.659    -303.862     232.173
  H      182.070    -302.585     232.442
  H      183.646    -301.992     233.005
  H      183.298    -302.035     231.261
  P      183.280    -304.764     230.901
  C      185.065    -305.899     229.396
  O      184.501    -305.789     230.693
  C      186.452    -306.534     229.464
  O      187.381    -305.551     230.012
  C      186.531    -307.792     230.345
  O      187.413    -308.728     229.717
  C      187.179    -307.281     231.623
  O      187.860    -308.307     232.336
  C      188.100    -306.195     231.079
  N      191.026    -305.551     235.187
  C      191.062    -306.458     234.190
  N      190.273    -306.526     233.098
  C      189.418    -305.487     233.059
  C      189.272    -304.479     234.002
  C      190.115    -304.550     235.124
  N      190.041    -303.670     236.180
  N      188.247    -303.628     233.634
  C      187.773    -304.123     232.509
  N      188.447    -305.248     232.125
  O      183.446    -303.730     229.686
  O      181.921    -305.379     230.932
  H      188.574    -308.664     231.770
  H      182.611    -303.249     229.550
  H      191.812    -307.237     234.280
  H      186.931    -303.732     231.955
  H      189.036    -306.597     230.671
  H      186.410    -306.858     232.279
  H      185.560    -308.262     230.527
  H      186.787    -306.753     228.444
  H      185.152    -304.899     228.961
  H      190.616    -303.859     236.989
  H      189.302    -302.987     236.197
  H      184.406    -306.502     228.761
  P      186.973    -309.313     228.289
  C      187.890    -311.114     226.648
  O      187.855    -310.614     227.981
  O      187.541    -308.226     227.260
  O      185.497    -309.500     228.142
  H      186.952    -308.161     226.485
  H      188.518    -311.979     226.608
  H      188.279    -310.361     225.995
  H      186.900    -311.377     226.340

 6  7  8  9  10  11  12  13  14  15  25  28  32  33  34  35 0
 6-311+G(2d,p)
 ****
 36  39  40 0
 6-311+G(2d,p)
 ****
 1  2  3  4  5  16  17  18  19  20  21  22  23  24 0
 3-21G
 ****
 26  27  29  30  31  37  38  41  42  43  44  45  46  47 0
 3-21G
 ****
 48 0
 3-21G
 ****


