%nproc=1
%NoSave
%Mem=1900MB
#P OB98/GEN NMR

erre ene a

0 1
  C      292.050     186.303    -188.421
  O      292.164     185.736    -189.730
  P      292.819     186.682    -190.852
  C      293.390     184.675    -192.396
  O      292.711     185.922    -192.265
  C      293.161     184.053    -193.778
  O      291.775     183.648    -193.949
  C      293.489     185.003    -194.944
  O      294.020     184.191    -196.001
  C      292.124     185.525    -195.350
  O      292.140     186.077    -196.665
  C      291.297     184.256    -195.175
  N      287.079     184.612    -197.930
  C      288.388     184.459    -198.328
  N      288.606     184.323    -199.655
  N      289.404     184.428    -197.506
  C      289.032     184.533    -196.196
  C      287.763     184.671    -195.670
  C      286.658     184.730    -196.611
  O      285.478     184.861    -196.308
  N      287.794     184.705    -194.300
  C      289.085     184.661    -194.007
  N      289.873     184.488    -195.112
  O      294.382     186.630    -190.504
  O      292.300     188.076    -190.847
  H      291.226     186.365    -196.865
  H      294.646     187.428    -190.016
  H      286.341     184.642    -198.613
  H      289.497     184.710    -193.009
  H      291.456     183.539    -195.997
  H      291.792     186.307    -194.648
  H      287.869     184.294    -200.343
  H      294.195     185.805    -194.690
  H      289.558     184.173    -199.970
  H      293.777     183.147    -193.853
  H      293.036     183.978    -191.632
  H      294.455     184.825    -192.197
  P      295.568     184.351    -196.359
  C      296.019     181.795    -196.409
  O      296.020     183.014    -197.127
  O      296.287     184.213    -194.928
  O      295.936     185.640    -197.022
  H      297.037     184.837    -194.876
  H      295.881     180.980    -197.116
  H      295.221     181.762    -195.669
  H      296.985     181.674    -195.903
  H      291.603     185.589    -187.761
  H      291.439     187.180    -188.464
  H      293.023     186.564    -188.059

 3  4  5  6  7  8  9  10  11  12  23  26  30  31 0
 6-311+G(2d,p)
 ****
 33  35  36  37  38 0
 6-311+G(2d,p)
 ****
 1  2  13  14  15  16  17  18  19  20  21  22  24  25 0
 3-21G
 ****
 27  28  29  32  34  39  40  41  42  43  44  45  46  47  48  49 0
 3-21G
 ****


