%nproc=1
%NoSave
%Mem=1900MB
#P OB98/GEN NMR

erre ene a

0 1
  C      120.568    -124.014     156.367
  O      121.605    -123.056     156.286
  H      120.728    -124.791     155.616
  H      120.593    -124.475     157.359
  H      119.592    -123.546     156.219
  P      121.575    -122.048     155.039
  C      124.055    -121.920     154.282
  O      123.004    -121.311     155.019
  C      125.375    -121.194     154.537
  O      125.304    -119.875     153.925
  C      125.716    -121.004     156.023
  O      127.125    -121.185     156.194
  C      125.373    -119.547     156.274
  O      126.102    -118.988     157.361
  C      125.710    -118.923     154.925
  N      125.597    -114.093     156.508
  C      126.533    -115.058     156.623
  N      126.506    -116.309     156.121
  C      125.400    -116.503     155.384
  C      124.361    -115.612     155.169
  C      124.480    -114.355     155.788
  N      123.502    -113.391     155.733
  N      123.374    -116.202     154.402
  C      123.797    -117.428     154.180
  N      125.016    -117.658     154.755
  O      120.571    -120.906     155.546
  O      121.138    -122.641     153.742
  H      125.855    -119.459     158.182
  H      119.656    -121.154     155.324
  H      127.417    -114.795     157.202
  H      123.255    -118.195     153.642
  H      126.783    -118.730     154.804
  H      124.302    -119.455     156.496
  H      125.172    -121.681     156.692
  H      126.176    -121.741     154.026
  H      123.820    -121.865     153.214
  H      123.629    -112.562     156.296
  H      122.622    -113.611     155.296
  H      124.136    -122.973     154.570
  P      127.635    -121.694     157.628
  C      129.864    -120.608     158.430
  O      129.235    -121.622     157.651
  O      127.334    -123.263     157.588
  O      126.955    -121.030     158.782
  H      127.109    -123.587     158.480
  H      130.926    -120.696     158.339
  H      129.583    -120.721     159.456
  H      129.555    -119.646     158.079

 6  7  8  9  10  11  12  13  14  15  25  28  32  33  34  35 0
 6-311+G(2d,p)
 ****
 36  39  40 0
 6-311+G(2d,p)
 ****
 1  2  3  4  5  16  17  18  19  20  21  22  23  24 0
 3-21G
 ****
 26  27  29  30  31  37  38  41  42  43  44  45  46  47 0
 3-21G
 ****
 48 0
 3-21G
 ****


