%nproc=1
%NoSave
%Mem=1900MB
#P OB98/GEN NMR

erre ene a

0 1
  C     -706.575     335.110     132.958
  O     -705.611     335.445     131.942
  P     -705.449     334.579     130.604
  C     -703.774     332.883     131.580
  O     -703.991     333.901     130.604
  C     -702.420     332.184     131.376
  O     -702.359     331.514     130.109
  C     -701.223     333.145     131.413
  O     -700.889     333.478     132.750
  C     -700.172     332.300     130.680
  O     -699.572     331.348     131.570
  C     -701.013     331.596     129.618
  N     -699.982     330.998     124.641
  C     -699.949     330.129     125.685
  N     -700.245     330.359     126.974
  C     -700.603     331.643     127.155
  C     -700.680     332.636     126.190
  C     -700.350     332.272     124.877
  N     -700.365     333.146     123.820
  N     -701.086     333.842     126.761
  C     -701.261     333.561     128.032
  N     -700.982     332.252     128.317
  O     -705.777     335.329     129.351
  O     -706.438     333.338     130.797
  H     -698.883     331.821     132.083
  H     -706.749     333.019     129.928
  H     -699.654     329.106     125.442
  H     -701.586     334.276     128.789
  H     -700.683     330.560     129.462
  H     -699.365     332.915     130.269
  H     -701.446     334.030     130.832
  H     -702.324     331.427     132.159
  H     -704.574     332.136     131.485
  H     -700.078     332.823     122.922
  H     -700.594     334.124     123.995
  H     -703.819     333.328     132.574
  P     -701.528     334.786     133.418
  C     -699.254     335.913     133.116
  O     -700.311     335.655     134.009
  O     -702.646     334.524     134.370
  O     -702.027     335.660     132.160
  H     -702.795     336.192     132.426
  H     -698.593     335.039     133.068
  H     -698.680     336.767     133.482
  H     -699.621     336.145     132.110
  H     -706.511     335.818     133.758
  H     -706.372     334.129     133.333
  H     -707.559     335.135     132.538

 3  4  5  6  7  8  9  10  11  12  22  25  29  30  31  32 0
 6-311+G(2d,p)
 ****
 33  36  37 0
 6-311+G(2d,p)
 ****
 1  2  13  14  15  16  17  18  19  20  21  23  24  26 0
 3-21G
 ****
 27  28  34  35  38  39  40  41  42  43  44  45  46  47  48 0
 3-21G
 ****


