%nproc=1
%NoSave
%Mem=1900MB
#P OB98/GEN NMR

erre ene a

0 1
  C      313.126    -133.507    -371.985
  O      312.606    -132.275    -371.524
  H      314.217    -133.467    -371.944
  H      312.818    -133.685    -373.023
  H      312.775    -134.322    -371.347
  P      311.010    -132.106    -371.557
  C      310.962    -130.699    -369.397
  O      310.737    -130.713    -370.802
  C      310.965    -129.265    -368.871
  O      312.140    -128.585    -369.391
  C      309.736    -128.451    -369.293
  O      309.372    -127.558    -368.233
  C      310.245    -127.635    -370.471
  O      309.472    -126.463    -370.697
  C      311.695    -127.384    -370.052
  N      313.227    -123.643    -373.145
  C      312.527    -123.631    -371.989
  N      312.178    -124.677    -371.215
  C      312.686    -125.824    -371.710
  C      313.420    -125.993    -372.873
  C      313.681    -124.827    -373.618
  N      314.367    -124.828    -374.811
  N      313.719    -127.328    -373.068
  C      313.183    -127.954    -372.033
  N      312.533    -127.087    -371.199
  O      310.229    -133.269    -371.049
  O      310.751    -131.722    -373.090
  H      309.924    -125.922    -371.381
  H      311.374    -131.032    -373.397
  H      312.185    -122.652    -371.650
  H      313.226    -129.027    -371.860
  H      311.787    -126.544    -369.348
  H      310.209    -128.247    -371.384
  H      308.883    -129.070    -369.563
  H      311.070    -129.285    -367.780
  H      311.923    -131.180    -369.163
  H      314.512    -123.945    -375.277
  H      314.723    -125.705    -375.182
  H      310.160    -131.279    -368.921
  P      307.821    -127.342    -367.894
  C      308.190    -127.952    -365.419
  O      307.676    -126.993    -366.332
  O      306.895    -128.399    -368.399
  O      307.509    -125.928    -368.594
  H      306.633    -125.975    -369.034
  H      308.036    -127.609    -364.417
  H      309.237    -128.085    -365.593
  H      307.684    -128.884    -365.559

 6  7  8  9  10  11  12  13  14  15  25  28  32  33  34  35 0
 6-311+G(2d,p)
 ****
 36  39  40 0
 6-311+G(2d,p)
 ****
 1  2  3  4  5  16  17  18  19  20  21  22  23  24 0
 3-21G
 ****
 26  27  29  30  31  37  38  41  42  43  44  45  46  47 0
 3-21G
 ****
 48 0
 3-21G
 ****


