%nproc=1
%NoSave
%Mem=1900MB
#P OB98/GEN NMR

erre ene a

0 1
  C      -32.699    -357.874     -16.962
  O      -32.856    -357.605     -18.357
  P      -34.265    -357.295     -19.048
  C      -33.242    -355.136     -20.042
  O      -34.018    -356.305     -20.291
  C      -33.253    -354.202     -21.256
  O      -32.507    -354.793     -22.351
  C      -34.628    -353.940     -21.866
  O      -35.410    -353.076     -21.064
  C      -34.252    -353.371     -23.235
  O      -33.979    -351.967     -23.157
  C      -32.960    -354.152     -23.558
  N      -33.136    -355.107     -24.643
  C      -32.728    -354.707     -25.914
  O      -32.323    -353.558     -26.104
  N      -32.804    -355.617     -26.947
  C      -33.348    -356.777     -26.739
  N      -33.374    -357.641     -27.799
  C      -33.913    -357.197     -25.450
  C      -33.770    -356.319     -24.446
  O      -35.317    -356.808     -18.095
  O      -34.708    -358.678     -19.741
  H      -35.684    -358.701     -19.813
  H      -33.369    -351.841     -22.401
  H      -34.380    -358.157     -25.327
  H      -34.150    -356.542     -23.451
  H      -32.164    -353.441     -23.833
  H      -35.055    -353.512     -23.967
  H      -35.155    -354.901     -21.998
  H      -32.774    -353.256     -20.976
  H      -32.970    -357.330     -28.668
  H      -32.210    -355.443     -19.842
  H      -33.751    -358.583     -27.738
  H      -33.635    -354.623     -19.151
  P      -36.810    -353.649     -20.517
  C      -36.746    -352.558     -18.147
  O      -37.358    -352.609     -19.419
  O      -36.373    -354.924     -19.640
  O      -37.790    -354.025     -21.576
  H      -37.020    -355.639     -19.766
  H      -36.882    -351.561     -17.736
  H      -35.688    -352.785     -18.202
  H      -37.244    -353.276     -17.487
  H      -31.666    -358.049     -16.747
  H      -33.270    -358.740     -16.699
  H      -33.044    -357.034     -16.396

 3  4  5  6  7  8  9  10  11  12  13  24  27  28  29  30  32 0
 6-311+G(2d,p)
 ****
 34  35 0
 6-311+G(2d,p)
 ****
 1  2  14  15  16  17  18  19  20  21  22  23  25  26 0
 3-21G
 ****
 31  33  36  37  38  39  40  41  42  43  44  45  46 0
 3-21G
 ****


