%nproc=1
%NoSave
%Mem=1900MB
#P OB98/GEN NMR

erre ene a

0 1
  C      171.278     181.917    -270.167
  O      170.636     181.313    -269.065
  H      171.955     182.703    -269.826
  H      171.860     181.159    -270.697
  H      170.538     182.336    -270.854
  P      169.755     182.271    -268.126
  C      167.391     181.725    -269.039
  O      168.313     181.576    -267.968
  C      165.992     181.988    -268.487
  O      165.192     182.592    -269.535
  C      165.253     180.733    -267.988
  O      164.888     180.888    -266.613
  C      163.981     180.685    -268.822
  O      162.831     180.303    -268.071
  C      163.857     182.106    -269.357
  N      159.208     182.444    -271.415
  C      159.679     182.820    -270.207
  N      160.950     182.800    -269.759
  C      161.784     182.360    -270.715
  C      161.455     181.964    -272.001
  C      160.092     182.001    -272.340
  N      159.606     181.566    -273.552
  N      162.584     181.563    -272.694
  C      163.569     181.674    -271.826
  N      163.131     182.133    -270.612
  O      169.461     183.535    -269.065
  O      170.405     182.673    -266.846
  H      162.616     181.055    -267.485
  H      169.647     184.358    -268.574
  H      158.934     183.176    -269.502
  H      164.600     181.396    -272.005
  H      163.345     182.771    -268.651
  H      164.118     179.964    -269.636
  H      165.842     179.818    -268.115
  H      166.075     182.725    -267.680
  H      167.370     180.806    -269.635
  H      158.606     181.518    -273.666
  H      160.246     181.133    -274.202
  H      167.718     182.549    -269.680
  P      165.395     179.745    -265.600
  C      167.217     180.849    -264.105
  O      165.852     180.475    -264.245
  O      166.780     179.276    -266.252
  O      164.440     178.611    -265.438
  H      166.971     178.353    -266.004
  H      167.362     181.321    -263.156
  H      167.482     181.531    -264.886
  H      167.834     179.977    -264.168

 6  7  8  9  10  11  12  13  14  15  25  28  32  33  34  35 0
 6-311+G(2d,p)
 ****
 36  39  40 0
 6-311+G(2d,p)
 ****
 1  2  3  4  5  16  17  18  19  20  21  22  23  24 0
 3-21G
 ****
 26  27  29  30  31  37  38  41  42  43  44  45  46  47  48 0
 3-21G
 ****


