%nproc=1
%NoSave
%Mem=1900MB
#P OB98/GEN NMR

erre ene a

0 1
  C      730.668     227.390    -213.896
  O      732.085     227.551    -214.033
  P      732.848     226.561    -215.049
  C      733.815     228.602    -216.335
  O      733.141     227.355    -216.418
  C      734.130     229.154    -217.733
  O      734.939     228.207    -218.491
  C      732.888     229.446    -218.578
  O      733.185     230.534    -219.460
  C      732.740     228.186    -219.400
  O      731.911     228.394    -220.547
  C      734.208     227.869    -219.684
  N      736.544     224.761    -222.899
  C      736.519     226.141    -222.855
  N      737.259     226.788    -223.781
  N      735.837     226.831    -221.979
  C      735.178     226.044    -221.088
  C      735.113     224.671    -221.035
  C      735.857     223.924    -222.028
  O      735.901     222.704    -222.125
  N      734.315     224.247    -219.998
  C      733.890     225.359    -219.439
  N      734.414     226.479    -220.037
  O      731.700     225.521    -215.457
  O      734.022     225.868    -214.446
  H      730.989     228.492    -220.225
  H      731.881     224.658    -215.040
  H      737.081     224.287    -223.607
  H      733.215     225.419    -218.604
  H      734.605     228.472    -220.513
  H      732.280     227.387    -218.788
  H      737.851     226.326    -224.452
  H      731.989     229.688    -218.002
  H      737.290     227.794    -223.751
  H      734.726     230.071    -217.618
  H      734.744     228.494    -215.768
  H      733.198     229.299    -215.760
  P      732.331     231.880    -219.272
  C      733.823     232.751    -217.339
  O      732.538     232.331    -217.746
  O      730.818     231.374    -219.305
  O      732.596     232.934    -220.300
  H      730.223     232.087    -219.593
  H      733.839     233.843    -217.259
  H      734.608     232.430    -218.029
  H      734.035     232.324    -216.349
  H      730.294     228.107    -213.195
  H      730.454     226.402    -213.545
  H      730.198     227.541    -214.846

 3  4  5  6  7  8  9  10  11  12  23  26  30  31 0
 6-311+G(2d,p)
 ****
 33  35  36  37  38 0
 6-311+G(2d,p)
 ****
 1  2  13  14  15  16  17  18  19  20  21  22  24  25 0
 3-21G
 ****
 27  28  29  32  34  39  40  41  42  43  44  45  46  47  48  49 0
 3-21G
 ****


