%nproc=1
%NoSave
%Mem=1900MB
#P OB98/GEN NMR

erre ene a

0 1
  C     -532.238    -108.588      92.115
  O     -533.052    -108.008      91.103
  P     -534.035    -106.807      91.538
  C     -536.587    -107.262      91.609
  O     -535.309    -107.507      92.204
  C     -536.983    -108.415      90.701
  O     -536.757    -109.677      91.378
  C     -538.465    -108.441      90.325
  O     -538.739    -107.545      89.236
  C     -538.633    -109.879      89.884
  O     -538.170    -110.043      88.526
  C     -537.703    -110.631      90.855
  N     -539.494    -114.975      92.768
  C     -538.807    -114.739      91.594
  N     -538.549    -115.825      90.828
  N     -538.432    -113.549      91.199
  C     -538.728    -112.569      92.084
  C     -539.411    -112.664      93.286
  C     -539.872    -113.980      93.678
  O     -540.542    -114.243      94.678
  N     -539.519    -111.456      93.907
  C     -538.872    -110.620      93.110
  N     -538.404    -111.248      91.974
  O     -534.591    -106.267      90.140
  O     -533.382    -105.719      92.343
  H     -537.281    -109.654      88.482
  H     -534.853    -105.325      90.234
  H     -539.762    -115.906      93.033
  H     -538.713    -109.561      93.314
  H     -537.120    -111.407      90.333
  H     -539.683    -110.208      89.906
  H     -538.697    -116.770      91.139
  H     -539.101    -108.237      91.188
  H     -538.007    -115.676      89.982
  H     -536.351    -108.388      89.803
  H     -536.526    -106.347      91.015
  H     -537.332    -107.112      92.399
  P     -540.248    -107.002      89.125
  C     -541.619    -108.321      87.366
  O     -541.123    -108.272      88.685
  O     -540.201    -106.083      87.819
  O     -540.726    -106.260      90.329
  H     -540.900    -105.393      87.859
  H     -540.915    -107.902      86.646
  H     -542.567    -107.792      87.309
  H     -541.795    -109.374      87.098
  H     -531.640    -109.367      91.689
  H     -532.861    -108.996      92.883
  H     -531.600    -107.838      92.534

 3  4  5  6  7  8  9  10  11  12  23  26  30  31  33  0
 6-311+G(2d,p)
 ****
 35  36  37  38 0
 6-311+G(2d,p)
 ****
 1  2  13  14  15  16  17  18  19  20  21  22  24  25  27  28  29 0
 3-21G
 ****
 32  34  39  40  41  42  43  44  45  46  47  48  49 0
 3-21G
 ****


