%nproc=1
%NoSave
%Mem=1900MB
#P OB98/GEN NMR

erre ene a

0 1
  C      -91.189    -285.218      50.615
  O      -91.290    -284.486      51.824
  H      -90.282    -285.827      50.649
  H      -91.122    -284.533      49.765
  H      -92.054    -285.876      50.500
  P      -92.578    -283.540      51.980
  C      -91.267    -281.898      50.469
  O      -92.028    -282.069      51.658
  C      -91.310    -280.442      50.011
  O      -90.494    -280.254      48.842
  C      -92.701    -279.945      49.630
  O      -93.445    -279.587      50.783
  C      -92.345    -278.727      48.788
  O      -92.022    -277.618      49.652
  C      -91.081    -279.192      48.039
  N      -89.038    -279.750      43.362
  C      -88.618    -279.069      44.451
  N      -89.235    -278.928      45.645
  C      -90.402    -279.588      45.658
  C      -90.961    -280.328      44.628
  C      -90.222    -280.407      43.435
  N      -90.648    -281.114      42.330
  N      -92.176    -280.861      45.007
  C      -92.324    -280.493      46.263
  N      -91.294    -279.692      46.694
  O      -93.346    -283.698      53.247
  O      -93.386    -283.903      50.645
  H      -91.906    -276.831      49.089
  H      -92.774    -284.029      49.898
  H      -87.661    -278.567      44.349
  H      -93.142    -280.794      46.908
  H      -90.336    -278.391      47.962
  H      -93.173    -278.404      48.153
  H      -93.227    -280.670      49.001
  H      -90.880    -279.825      50.812
  H      -91.651    -282.553      49.674
  H      -90.145    -280.979      41.468
  H      -91.582    -281.496      42.344
  H      -90.237    -282.193      50.692
  P      -94.632    -280.530      51.313
  C      -96.406    -279.677      49.660
  O      -96.000    -279.744      51.021
  O      -94.480    -281.009      52.714
  O      -94.679    -281.741      50.270
  H      -94.869    -282.582      50.735
  H      -97.325    -279.133      49.588
  H      -96.547    -280.668      49.281
  H      -95.651    -279.180      49.087

 6  7  8  9  10  11  12  13  14  15  25  28  32  33  34  35 0
 6-311+G(2d,p)
 ****
 36  39  40 0
 6-311+G(2d,p)
 ****
 1  2  3  4  5  16  17  18  19  20  21  22  23  24 0
 3-21G
 ****
 26  27  29  30  31  37  38  41  42  43  44  45  46  47 0
 3-21G
 ****
 48 0
 3-21G
 ****


