%nproc=1
%NoSave
%Mem=1900MB
#P OB98/GEN NMR

erre ene a

0 1
  C      -73.559     163.143     -56.368
  O      -73.763     163.712     -55.090
  H      -74.384     163.409     -57.036
  H      -72.629     163.538     -56.784
  H      -73.477     162.055     -56.291
  P      -75.072     163.233     -54.293
  C      -76.305     165.406     -55.000
  O      -76.312     163.987     -54.980
  C      -77.574     165.948     -54.350
  O      -78.733     165.547     -55.113
  C      -77.825     165.452     -52.931
  O      -77.052     166.163     -51.977
  C      -79.310     165.758     -52.784
  O      -79.492     167.156     -52.498
  C      -79.844     165.432     -54.186
  N      -83.931     162.702     -55.613
  C      -83.649     164.021     -55.703
  N      -82.531     164.670     -55.319
  C      -81.635     163.809     -54.810
  C      -81.768     162.436     -54.676
  C      -82.985     161.877     -55.097
  N      -83.287     160.533     -54.936
  N      -80.640     161.891     -54.092
  C      -79.850     162.920     -53.866
  N      -80.404     164.098     -54.290
  O      -74.915     163.969     -52.878
  O      -75.217     161.756     -54.138
  H      -80.442     167.344     -52.613
  H      -74.524     163.347     -52.235
  H      -84.430     164.639     -56.139
  H      -78.876     162.861     -53.400
  H      -80.611     166.143     -54.513
  H      -79.784     165.197     -51.972
  H      -77.673     164.370     -52.849
  H      -77.524     167.045     -54.377
  H      -76.252     165.755     -56.037
  H      -84.281     160.354     -54.829
  H      -82.662     160.035     -54.313
  H      -75.421     165.759     -54.459
  P      -76.638     165.399     -50.630
  C      -78.463     166.515     -49.174
  O      -77.966     165.305     -49.733
  O      -75.739     166.480     -49.867
  O      -75.897     164.119     -50.824
  H      -74.862     166.099     -49.668
  H      -79.345     166.309     -48.604
  H      -78.699     167.201     -49.961
  H      -77.719     166.945     -48.537

 6  7  8  9  10  11  12  13  14  15  25  28  32  33  34  35 0
 6-311+G(2d,p)
 ****
 36  39  40 0
 6-311+G(2d,p)
 ****
 1  2  3  4  5  16  17  18  19  20  21  22  23  24 0
 3-21G
 ****
 26  27  29  30  31  37  38  41  42  43  44  45  46  47  48 0
 3-21G
 ****


