%nproc=1
%NoSave
%Mem=1900MB
#P OB98/GEN NMR

erre ene a

0 1
  C     -204.321       1.809     -81.485
  O     -203.242       1.134     -82.141
  P     -201.948       0.794     -81.255
  C     -202.795      -1.220     -79.861
  O     -201.958      -0.779     -80.922
  C     -203.081      -2.728     -79.961
  O     -203.350      -3.111     -81.340
  C     -201.923      -3.605     -79.471
  O     -202.487      -4.787     -78.880
  C     -201.219      -3.996     -80.759
  O     -200.402      -5.150     -80.583
  C     -202.425      -4.169     -81.685
  N     -201.382      -6.919     -85.863
  C     -201.721      -7.277     -84.608
  N     -201.961      -6.478     -83.539
  C     -201.863      -5.184     -83.888
  C     -201.516      -4.666     -85.129
  C     -201.265      -5.600     -86.153
  N     -200.896      -5.234     -87.430
  N     -201.474      -3.282     -85.083
  C     -201.782      -2.976     -83.835
  N     -202.055      -4.090     -83.086
  O     -202.281       1.481     -79.848
  O     -200.667       1.318     -81.831
  H     -200.926      -5.822     -80.086
  H     -201.723       2.275     -79.726
  H     -201.802      -8.346     -84.429
  H     -201.816      -1.978     -83.425
  H     -202.930      -5.131     -81.538
  H     -200.580      -3.172     -81.099
  H     -201.248      -3.119     -78.759
  H     -203.984      -2.945     -79.375
  H     -203.745      -0.673     -79.876
  H     -200.703      -5.965     -88.095
  H     -200.759      -4.253     -87.642
  H     -202.319      -0.967     -78.904
  P     -201.978      -5.160     -77.405
  C     -202.889      -3.272     -75.860
  O     -203.076      -4.578     -76.391
  O     -200.710      -4.203     -77.186
  O     -201.629      -6.603     -77.228
  H     -200.098      -4.598     -76.537
  H     -203.855      -2.760     -75.836
  H     -202.193      -2.680     -76.470
  H     -202.504      -3.353     -74.846
  H     -205.115       1.974     -82.183
  H     -203.977       2.749     -81.107
  H     -204.678       1.208     -80.675

 3  4  5  6  7  8  9  10  11  12  22  25  29  30  31  32 0
 6-311+G(2d,p)
 ****
 33  36  37 0
 6-311+G(2d,p)
 ****
 1  2  13  14  15  16  17  18  19  20  21  23  24  26 0
 3-21G
 ****
 27  28  34  35  38  39  40  41  42  43  44  45  46  47  48 0
 3-21G
 ****


