%nproc=1
%NoSave
%Mem=1900MB
#P OB98/GEN NMR

erre ene a

0 1
  C      -29.466     -37.329    -147.609
  O      -30.751     -36.753    -147.519
  H      -29.067     -37.136    -148.608
  H      -29.533     -38.411    -147.461
  H      -28.785     -36.898    -146.872
  P      -31.431     -36.604    -146.078
  C      -33.130     -37.937    -144.664
  O      -32.393     -37.872    -145.876
  C      -33.482     -39.390    -144.318
  O      -34.207     -39.975    -145.430
  C      -32.221     -40.238    -144.111
  O      -32.447     -41.327    -143.219
  C      -31.955     -40.788    -145.503
  O      -31.172     -41.981    -145.495
  C      -33.376     -40.985    -146.029
  N      -32.758     -43.399    -150.477
  C      -32.354     -43.781    -149.212
  N      -31.702     -44.966    -149.123
  N      -32.549     -43.060    -148.139
  C      -33.148     -41.871    -148.390
  C      -33.573     -41.370    -149.600
  C      -33.381     -42.194    -150.775
  O      -33.700     -41.892    -151.922
  N      -34.127     -40.122    -149.460
  C      -34.034     -39.865    -148.171
  N      -33.470     -40.906    -147.474
  O      -32.477     -35.406    -146.276
  O      -30.490     -36.330    -144.944
  H      -30.387     -41.812    -144.942
  H      -32.692     -34.998    -145.419
  H      -32.608     -44.004    -151.264
  H      -34.373     -38.955    -147.691
  H      -33.767     -41.963    -145.725
  H      -31.392     -40.038    -146.067
  H      -31.362     -45.447    -149.940
  H      -31.376     -39.655    -143.753
  H      -31.136     -45.108    -148.280
  H      -34.151     -39.418    -143.452
  H      -34.038     -37.346    -144.810
  H      -32.569     -37.472    -143.852
  P      -31.632     -41.369    -141.841
  C      -29.083     -41.591    -141.160
  O      -30.104     -41.734    -142.124
  O      -32.203     -42.663    -141.100
  O      -31.774     -40.135    -141.002
  H      -32.670     -42.410    -140.281
  H      -28.149     -41.898    -141.582
  H      -29.308     -42.200    -140.310
  H      -29.019     -40.567    -140.858

 6  7  8  9  10  11  12  13  14  15  26  29  33  34 0
 6-311+G(2d,p)
 ****
 36  38  39  40  41 0
 6-311+G(2d,p)
 ****
 1  2  3  4  5  16  17  18  19  20  21  22  23  24  25 0
 3-21G
 ****
 27  28  30  31  32  35  37  42  43  44  45  46  47 0
 3-21G
 ****
 48  49 0
 3-21G
 ****


