%nproc=1
%NoSave
%Mem=1900MB
#P OB98/GEN NMR

erre ene a

0 1
  C      208.722    -319.801    -278.281
  O      208.705    -318.550    -277.620
  H      208.230    -319.694    -279.250
  H      208.183    -320.545    -277.690
  H      209.753    -320.131    -278.441
  P      209.403    -318.488    -276.177
  C      208.227    -316.181    -275.950
  O      208.584    -317.405    -275.325
  C      207.432    -315.317    -274.978
  O      206.123    -315.897    -274.767
  C      208.056    -315.215    -273.593
  O      209.131    -314.299    -273.551
  C      206.859    -314.786    -272.762
  O      206.650    -313.370    -272.834
  C      205.699    -315.529    -273.434
  N      202.811    -317.247    -269.592
  C      202.930    -316.026    -270.155
  N      203.716    -315.652    -271.186
  C      204.407    -316.703    -271.660
  C      204.385    -318.006    -271.190
  C      203.537    -318.269    -270.102
  N      203.434    -319.508    -269.513
  N      205.262    -318.794    -271.910
  C      205.796    -317.984    -272.803
  N      205.306    -316.713    -272.692
  O      210.796    -317.760    -276.481
  O      209.599    -319.808    -275.512
  H      207.527    -312.957    -272.719
  H      211.505    -318.427    -276.540
  H      202.323    -315.242    -269.707
  H      206.540    -318.268    -273.538
  H      204.806    -314.901    -273.537
  H      206.999    -315.047    -271.713
  H      208.383    -316.207    -273.254
  H      207.298    -314.320    -275.418
  H      207.611    -316.391    -276.833
  H      209.138    -315.665    -276.269
  H      202.859    -319.609    -268.693
  H      204.056    -320.249    -269.816
  P      209.695    -313.869    -272.112
  C      210.357    -311.533    -273.063
  O      209.679    -312.268    -272.053
  O      211.251    -314.234    -272.187
  O      209.020    -314.537    -270.960
  H      211.559    -314.546    -271.313
  H      210.248    -310.485    -272.875
  H      209.938    -311.770    -274.019
  H      211.395    -311.791    -273.055

 6  7  8  9  10  11  12  13  14  15  25  28  32  33  34  35 0
 6-311+G(2d,p)
 ****
 36  37  40 0
 6-311+G(2d,p)
 ****
 1  2  3  4  5  16  17  18  19  20  21  22  23  24 0
 3-21G
 ****
 26  27  29  30  31  38  39 41  42  43  44  45  46  47  48 0
 3-21G
 ****


