%nproc=1
%NoSave
%Mem=1900MB
#P OB98/GEN NMR

erre ene a

0 1
  C     -147.511     639.987     657.269
  O     -146.612     639.993     658.354
  H     -148.527     640.120     657.662
  H     -147.470     639.032     656.742
  H     -147.293     640.809     656.580
  P     -145.045     639.772     658.073
  C     -143.436     641.297     656.776
  O     -144.460     641.237     657.765
  C     -142.489     642.469     657.029
  O     -143.245     643.711     657.034
  C     -141.740     642.377     658.375
  O     -140.353     642.657     658.169
  C     -142.364     643.486     659.206
  O     -141.510     643.955     660.244
  C     -142.716     644.508     658.114
  N     -143.662     645.511     658.584
  C     -143.146     646.512     659.412
  O     -141.954     646.513     659.711
  N     -144.003     647.442     659.938
  C     -145.269     647.360     659.688
  N     -146.073     648.300     660.269
  C     -145.869     646.301     658.839
  C     -145.013     645.422     658.325
  O     -144.734     638.736     657.044
  O     -144.414     639.433     659.511
  H     -141.214     643.189     660.779
  H     -143.565     638.952     659.379
  H     -146.939     646.272     658.678
  H     -145.355     644.611     657.690
  H     -141.811     645.022     657.759
  H     -143.289     643.113     659.673
  H     -141.845     641.403     658.859
  H     -141.790     642.540     656.190
  H     -145.618     649.004     660.852
  H     -143.909     641.387     655.789
  H     -147.076     648.324     660.169
  H     -142.865     640.363     656.807
  P     -139.414     641.381     657.907
  C     -138.468     640.137     655.830
  O     -139.145     641.281     656.314
  O     -140.364     640.139     658.222
  O     -138.176     641.362     658.755
  H     -140.076     639.692     659.039
  H     -138.362     640.208     654.768
  H     -139.030     639.260     656.075
  H     -137.500     640.078     656.282

 6  7  8  9  10  11  12  13  14  15  16  26  30  31  32  33  35 0
 6-311+G(2d,p)
 ****
 37  38 0
 6-311+G(2d,p)
 ****
 1  2  3  4  5  17  18  19  20  21  22  23  24  25 0
 3-21G
 ****
 27  28  29  34  36  39  40  41  42  43  44  45  46 0
 3-21G
 ****


