%nproc=1
%NoSave
%Mem=1900MB
#P OB98/GEN NMR

erre ene a

0 1
  C      132.042      42.294      44.033
  O      133.145      42.741      43.264
  P      132.923      43.688      41.994
  C      132.697      41.753      40.326
  O      132.047      42.866      40.924
  C      131.901      41.210      39.141
  O      130.671      40.609      39.634
  C      131.505      42.266      38.098
  O      131.523      41.614      36.824
  C      130.070      42.600      38.483
  O      129.336      43.183      37.418
  C      129.580      41.220      38.910
  N      124.835      39.455      39.642
  C      125.738      39.227      38.662
  N      126.972      39.756      38.526
  C      127.247      40.597      39.539
  C      126.414      40.950      40.590
  C      125.156      40.321      40.637
  N      124.240      40.512      41.644
  N      127.033      41.890      41.396
  C      128.209      42.095      40.840
  N      128.408      41.287      39.753
  O      134.163      44.307      41.436
  O      131.902      44.806      42.516
  H      129.439      42.620      36.626
  H      132.377      45.651      42.649
  H      125.433      38.525      37.895
  H      128.948      42.808      41.178
  H      129.343      40.580      38.052
  H      130.070      43.305      39.320
  H      132.154      43.151      38.091
  H      132.487      40.410      38.674
  H      132.793      40.971      41.085
  H      123.426      39.914      41.645
  H      124.551      40.938      42.515
  H      133.703      42.042      40.004
  P      131.714      42.477      35.484
  C      129.241      42.196      34.886
  O      130.285      43.116      35.145
  O      132.385      41.764      34.357
  O      132.574      43.741      35.980
  H      132.977      44.178      35.203
  H      129.320      41.842      33.855
  H      128.278      42.706      35.019
  H      129.289      41.345      35.567
  H      132.392      41.676      44.833
  H      131.379      41.730      43.411
  H      131.522      43.138      44.436

 3  4  5  6  7  8  9  10  11  12  22  25  29  30  31  32 0
 6-311+G(2d,p)
 ****
 33  36  37 0
 6-311+G(2d,p)
 ****
 1  2  13  14  15  16  17  18  19  20  21  23  24  26 0
 3-21G
 ****
 27  28  34  35  38  39  40  41  42  43  44  45  46  47  48 0
 3-21G
 ****


