%nproc=1
%NoSave
%Mem=1900MB
#P OB98/GEN NMR

erre ene a

0 1
  C      707.114      69.510    -118.764
  O      706.364      70.698    -118.639
  H      706.536      68.798    -119.360
  H      707.298      69.071    -117.779
  H      708.064      69.702    -119.274
  P      706.993      71.915    -117.800
  C      706.622      73.338    -119.934
  O      706.430      73.233    -118.533
  C      705.457      74.084    -120.574
  O      705.252      75.370    -119.947
  C      705.638      74.409    -122.053
  O      705.503      73.286    -122.907
  C      704.515      75.414    -122.240
  O      703.256      74.727    -122.296
  C      704.649      76.244    -120.942
  N      705.461      77.448    -121.120
  C      704.779      78.671    -121.126
  O      703.555      78.708    -120.986
  N      705.494      79.829    -121.309
  C      706.778      79.771    -121.506
  N      707.439      80.950    -121.697
  C      707.534      78.504    -121.535
  C      706.820      77.397    -121.337
  O      708.475      71.874    -117.597
  O      706.163      71.929    -116.433
  H      702.560      75.412    -122.309
  H      706.520      72.659    -115.869
  H      708.593      78.503    -121.731
  H      707.305      76.426    -121.349
  H      703.661      76.538    -120.564
  H      704.609      76.001    -123.162
  H      706.596      74.918    -122.228
  H      704.553      73.491    -120.402
  H      706.890      81.798    -121.676
  H      706.715      72.329    -120.346
  H      708.417      80.989    -121.926
  H      707.549      73.892    -120.145
  P      706.737      72.958    -123.886
  C      706.131      70.443    -124.228
  O      706.273      71.732    -124.804
  O      707.820      72.319    -122.898
  O      707.273      74.130    -124.645
  H      708.486      72.990    -122.636
  H      705.816      69.749    -124.979
  H      705.400      70.480    -123.448
  H      707.070      70.128    -123.822

 6  7  8  9  10  11  12  13  14  15  16  26  30  31  32  33  35 0
 6-311+G(2d,p)
 ****
 37  38 0
 6-311+G(2d,p)
 ****
 1  2  3  4  5  17  18  19  20  21  22  23  24  25 0
 3-21G
 ****
 27  28  29  34  36  39  40  41  42  43  44  45  46 0
 3-21G
 ****


