%nproc=1
%NoSave
%Mem=1900MB
#P OB98/GEN NMR

erre ene a

0 1
  C     -337.678     731.224     439.128
  O     -338.742     731.057     438.189
  P     -338.559     731.771     436.760
  C     -337.493     730.884     434.565
  O     -338.371     730.628     435.648
  C     -337.117     729.571     433.868
  O     -336.266     728.752     434.711
  C     -338.313     728.695     433.532
  O     -339.017     729.207     432.410
  C     -337.633     727.349     433.299
  O     -337.042     727.309     431.992
  C     -336.522     727.367     434.366
  N     -336.424     722.767     436.613
  C     -336.004     723.192     435.396
  N     -336.063     724.430     434.874
  C     -336.625     725.282     435.738
  C     -337.108     724.998     437.011
  C     -336.995     723.673     437.441
  N     -337.438     723.239     438.677
  N     -337.617     726.139     437.609
  C     -337.470     727.085     436.705
  N     -336.869     726.627     435.565
  O     -337.111     732.441     436.870
  O     -339.615     732.784     436.457
  H     -337.748     727.516     431.346
  H     -337.198     733.415     436.942
  H     -335.558     722.432     434.757
  H     -337.781     728.126     436.825
  H     -335.576     726.949     433.986
  H     -338.316     726.496     433.374
  H     -338.994     728.621     434.402
  H     -336.567     729.818     432.952
  H     -336.591     731.393     434.922
  H     -337.395     722.254     438.874
  H     -337.936     723.887     439.272
  H     -337.985     731.576     433.868
  P     -340.374     730.021     432.691
  C     -340.550     732.547     433.160
  O     -339.866     731.338     433.473
  O     -341.035     729.153     433.852
  O     -341.217     730.262     431.490
  H     -340.390     728.911     434.541
  H     -340.134     733.344     433.780
  H     -341.617     732.439     433.367
  H     -340.392     732.799     432.105
  H     -337.917     730.706     440.033
  H     -337.547     732.265     439.337
  H     -336.774     730.826     438.717

 3  4  5  6  7  8  9  10  11  12  22  25  29  30  31  32 0
 6-311+G(2d,p)
 ****
 33  36  37 0
 6-311+G(2d,p)
 ****
 1  2  13  14  15  16  17  18  19  20  21  23  24  26 0
 3-21G
 ****
 27  28  34  35  38  39  40  41  42  43  44  45  46  47  48 0
 3-21G
 ****


