%nproc=1
%NoSave
%Mem=1900MB
#P OB98/GEN NMR

erre ene a

0 1
  C      265.051     114.628      43.084
  O      264.388     115.716      42.471
  H      264.379     113.767      43.094
  H      265.315     114.881      44.115
  H      265.951     114.369      42.521
  P      265.196     117.101      42.415
  C      263.683     118.137      44.247
  O      264.179     118.236      42.920
  C      262.891     119.388      44.616
  O      262.234     119.219      45.891
  C      263.731     120.656      44.720
  O      263.927     121.240      43.443
  C      262.863     121.511      45.631
  O      261.787     122.129      44.892
  C      262.317     120.474      46.621
  N      264.964     122.857      50.199
  C      264.339     123.354      49.073
  N      264.460     124.681      48.848
  N      263.666     122.616      48.230
  C      263.677     121.300      48.547
  C      264.260     120.685      49.632
  C      264.955     121.522      50.585
  O      265.459     121.155      51.642
  N      264.035     119.332      49.614
  C      263.348     119.128      48.506
  N      263.110     120.291      47.821
  O      265.324     117.396      40.845
  O      266.534     117.089      43.071
  H      261.254     121.434      44.467
  H      266.200     117.789      40.671
  H      265.444     123.477      50.827
  H      262.993     118.165      48.164
  H      261.302     120.721      46.953
  H      263.433     122.326      46.081
  H      265.187     125.233      49.279
  H      264.689     120.455      45.214
  H      264.065     125.030      47.984
  H      262.101     119.510      43.864
  H      264.529     118.026      44.934
  H      263.040     117.255      44.326
  P      265.428     121.436      42.920
  C      265.808     123.806      43.915
  O      265.688     123.011      42.743
  O      265.357     120.894      41.416
  O      266.462     120.701      43.706
  H      265.782     120.020      41.359
  H      265.978     124.826      43.639
  H      266.630     123.454      44.502
  H      264.906     123.737      44.487

 6  7  8  9  10  11  12  13  14  15  26  29  33  34 0
 6-311+G(2d,p)
 ****
 36  38  39  40  41 0
 6-311+G(2d,p)
 ****
 1  2  3  4  5  16  17  18  19  20  21  22  23  24  25 0
 3-21G
 ****
 27  28  30  31  32  35  37  42  43  44  45  46  47 0
 3-21G
 ****
 48  49 0
 3-21G
 ****


