%nproc=1
%NoSave
%Mem=1900MB
#P OB98/GEN NMR

erre ene a

0 1
  C      158.232      73.402      47.553
  O      157.760      72.684      48.686
  P      156.242      72.165      48.677
  C      155.065      70.177      47.499
  O      156.105      71.144      47.444
  C      154.069      70.372      46.356
  O      153.368      71.631      46.548
  C      154.701      70.414      44.961
  O      153.757      69.837      44.049
  C      154.816      71.900      44.681
  O      154.929      72.181      43.289
  C      153.533      72.403      45.338
  N      150.869      76.759      45.579
  C      150.504      75.500      45.252
  N      151.272      74.392      45.212
  C      152.540      74.679      45.554
  C      153.065      75.919      45.877
  C      152.166      77.000      45.887
  N      152.531      78.280      46.229
  N      154.414      75.819      46.143
  C      154.701      74.544      45.982
  N      153.595      73.813      45.651
  O      155.434      73.455      48.186
  O      155.732      71.669      49.985
  H      154.111      71.882      42.849
  H      154.886      73.803      48.917
  H      149.458      75.365      44.994
  H      155.683      74.105      46.093
  H      152.651      72.232      44.707
  H      155.704      72.303      45.181
  H      155.662      69.895      44.890
  H      153.318      69.574      46.414
  H      154.533      70.288      48.449
  H      151.806      78.969      46.346
  H      153.446      78.433      46.642
  H      155.496      69.172      47.458
  P      154.344      69.213      42.694
  C      155.861      67.183      42.141
  O      155.400      68.091      43.124
  O      155.256      70.391      42.107
  O      153.298      68.787      41.715
  H      155.307      70.321      41.136
  H      156.898      66.920      42.363
  H      155.811      67.612      41.134
  H      155.249      66.278      42.174
  H      159.254      73.679      47.707
  H      157.640      74.283      47.417
  H      158.157      72.784      46.683

 3  4  5  6  7  8  9  10  11  12  22  25  29  30  31  32 0
 6-311+G(2d,p)
 ****
 33  36  37 0
 6-311+G(2d,p)
 ****
 1  2  13  14  15  16  17  18  19  20  21  23  24  26 0
 3-21G
 ****
 27  28  34  35  38  39  40  41  42  43  44  45  46  47  48 0
 3-21G
 ****


