%nproc=1
%NoSave
%Mem=1900MB
#P OB98/GEN NMR

erre ene a

0 1
  C       27.337    -509.533     -46.307
  O       28.687    -509.934     -46.333
  P       29.314    -510.877     -47.453
  C       30.797    -509.182     -48.783
  O       29.626    -509.991     -48.754
  C       31.769    -509.662     -49.868
  O       32.200    -511.006     -49.534
  C       31.089    -509.738     -51.248
  O       31.899    -509.263     -52.317
  C       30.619    -511.184     -51.311
  O       30.364    -511.639     -52.632
  C       31.731    -511.908     -50.558
  N       32.817    -516.834     -49.929
  C       33.616    -515.825     -50.429
  N       34.770    -516.219     -51.013
  N       33.280    -514.559     -50.408
  C       32.048    -514.334     -49.903
  C       31.168    -515.252     -49.372
  C       31.564    -516.638     -49.372
  O       30.847    -517.578     -49.039
  N       29.981    -514.668     -49.017
  C       30.117    -513.407     -49.366
  N       31.350    -513.162     -49.940
  O       28.659    -512.208     -47.651
  O       30.795    -511.144     -46.861
  H       30.028    -512.554     -52.570
  H       31.046    -512.052     -47.122
  H       33.096    -517.802     -50.048
  H       29.364    -512.642     -49.258
  H       32.572    -512.142     -51.213
  H       29.669    -511.248     -50.764
  H       34.987    -517.188     -51.171
  H       30.217    -509.079     -51.278
  H       35.246    -515.537     -51.605
  H       32.654    -509.018     -49.871
  H       31.255    -509.272     -47.792
  H       30.532    -508.130     -48.935
  P       31.481    -508.340     -53.549
  C       32.083    -505.980     -52.725
  O       31.043    -506.904     -52.980
  O       30.104    -508.948     -54.081
  O       32.484    -508.285     -54.654
  H       30.087    -508.918     -55.060
  H       31.686    -505.177     -52.103
  H       32.440    -505.564     -53.667
  H       32.910    -506.473     -52.199
  H       27.168    -508.905     -45.458
  H       26.709    -510.397     -46.242
  H       27.108    -508.992     -47.202

 3  4  5  6  7  8  9  10  11  12  23  26  30  31 0
 6-311+G(2d,p)
 ****
 33  35  36  37  38 0
 6-311+G(2d,p)
 ****
 1  2  13  14  15  16  17  18  19  20  21  22  24  25 0
 3-21G
 ****
 27  28  29  32  34  39  40  41  42  43  44  45  46  47  48  49 0
 3-21G
 ****


