%nproc=1
%NoSave
%Mem=1900MB
#P OB98/GEN NMR

erre ene a

0 1
  C      527.664    -249.223    -583.377
  O      528.195    -247.983    -583.779
  P      527.689    -246.577    -583.202
  C      525.890    -245.158    -584.434
  O      526.176    -246.350    -583.697
  C      526.181    -245.304    -585.938
  O      525.551    -246.495    -586.441
  C      525.570    -244.129    -586.705
  O      526.254    -242.900    -586.806
  C      525.123    -244.724    -588.043
  O      526.053    -244.486    -589.089
  C      525.009    -246.222    -587.741
  N      520.824    -246.734    -590.555
  C      522.106    -246.401    -590.959
  N      522.232    -245.969    -592.235
  N      523.150    -246.462    -590.168
  C      522.838    -246.823    -588.897
  C      521.622    -247.189    -588.392
  C      520.485    -247.152    -589.279
  O      519.319    -247.360    -588.949
  N      521.672    -247.417    -587.040
  C      522.927    -247.159    -586.712
  N      523.656    -246.742    -587.809
  O      528.654    -245.436    -583.269
  O      527.477    -246.943    -581.636
  H      525.805    -245.024    -589.864
  H      527.709    -246.146    -581.126
  H      520.044    -246.590    -591.192
  H      523.337    -247.192    -585.717
  H      525.611    -246.806    -588.463
  H      524.178    -244.275    -588.367
  H      521.437    -245.772    -592.819
  H      524.636    -243.863    -586.191
  H      523.122    -245.567    -592.510
  H      527.256    -245.434    -586.119
  H      526.491    -244.351    -583.997
  H      524.839    -244.892    -584.303
  P      525.604    -241.451    -586.961
  C      525.828    -240.022    -589.077
  O      525.287    -241.203    -588.514
  O      526.805    -240.431    -586.673
  O      524.468    -241.171    -586.039
  H      526.452    -239.564    -586.400
  H      525.322    -239.807    -590.015
  H      526.895    -240.176    -589.277
  H      525.709    -239.171    -588.399
  H      528.163    -250.011    -583.901
  H      526.618    -249.252    -583.600
  H      527.808    -249.348    -582.324

 3  4  5  6  7  8  9  10  11  12  23  26  30  31 0
 6-311+G(2d,p)
 ****
 33  35  36  37  38 0
 6-311+G(2d,p)
 ****
 1  2  13  14  15  16  17  18  19  20  21  22  24  25 0
 3-21G
 ****
 27  28  29  32  34  39  40  41  42  43  44  45  46  47  48  49 0
 3-21G
 ****


