%nproc=1
%NoSave
%Mem=1900MB
#P OB98/GEN NMR

erre ene a

0 1
  C     -266.971     257.596     326.398
  O     -266.041     257.992     325.409
  H     -267.981     257.820     326.040
  H     -266.796     258.147     327.327
  H     -266.893     256.520     326.580
  P     -264.492     257.722     325.737
  C     -264.184     260.291     325.684
  O     -263.988     259.088     326.412
  C     -262.839     260.895     325.280
  O     -263.028     261.978     324.348
  C     -262.041     261.484     326.440
  O     -261.351     260.466     327.145
  C     -261.081     262.395     325.690
  O     -260.000     261.618     325.142
  C     -261.964     262.942     324.547
  N     -261.231     268.019     324.330
  C     -260.377     266.981     324.168
  N     -260.634     265.661     324.284
  C     -261.921     265.449     324.600
  C     -262.902     266.405     324.792
  C     -262.517     267.754     324.639
  N     -263.388     268.807     324.793
  N     -264.109     265.815     325.112
  C     -263.873     264.523     325.053
  N     -262.554     264.246     324.783
  O     -263.675     257.196     324.607
  O     -264.614     256.742     326.998
  H     -260.389     260.872     324.653
  H     -265.350     257.018     327.575
  H     -259.356     267.246     323.908
  H     -264.615     263.744     325.185
  H     -261.405     263.021     323.605
  H     -260.630     263.152     326.338
  H     -262.672     262.089     327.094
  H     -262.261     260.117     324.764
  H     -264.749     261.011     326.284
  H     -262.999     269.732     324.832
  H     -264.317     268.609     325.145
  H     -264.769     260.044     324.792
  P     -261.653     260.196     328.699
  C     -259.242     260.454     329.560
  O     -260.554     261.018     329.526
  O     -261.772     258.760     329.078
  O     -263.003     261.004     328.986
  H     -263.570     260.504     329.600
  H     -258.598     261.084     330.136
  H     -258.863     260.373     328.563
  H     -259.283     259.482     330.006

 6  7  8  9  10  11  12  13  14  15  25  28  32  33  34  35 0
 6-311+G(2d,p)
 ****
 36  39  40 0
 6-311+G(2d,p)
 ****
 1  2  3  4  5  16  17  18  19  20  21  22  23  24 0
 3-21G
 ****
 26  27  29  30  31  37  38  41  42  43  44  45  46  47 0
 3-21G
 ****
 48 0
 3-21G
 ****


