%nproc=1
%NoSave
%Mem=1900MB
#P OB98/GEN NMR

erre ene a

0 1
  C     -171.654      35.983     190.590
  O     -171.934      35.485     191.880
  H     -172.308      35.482     189.872
  H     -170.613      35.767     190.329
  H     -171.830      37.060     190.534
  P     -171.385      36.285     193.152
  C     -169.184      34.971     193.441
  O     -169.783      36.212     193.104
  C     -167.677      34.988     193.156
  O     -167.060      33.816     193.740
  C     -167.418      34.922     191.649
  O     -166.198      35.562     191.285
  C     -167.295      33.429     191.393
  O     -166.584      33.124     190.197
  C     -166.594      32.971     192.672
  N     -164.860      28.184     192.532
  C     -164.334      29.320     191.952
  N     -163.209      29.156     191.221
  N     -164.870      30.506     192.065
  C     -166.033      30.507     192.762
  C     -166.666      29.443     193.363
  C     -166.040      28.143     193.263
  O     -166.472      27.097     193.741
  N     -167.838      29.830     193.963
  C     -167.917      31.124     193.723
  N     -166.837      31.584     193.009
  O     -171.739      35.328     194.387
  O     -171.949      37.660     193.346
  H     -166.286      32.197     190.259
  H     -171.816      35.845     195.207
  H     -164.397      27.297     192.426
  H     -168.726      31.769     194.045
  H     -165.508      33.104     192.586
  H     -168.300      33.014     191.286
  H     -162.863      28.245     190.962
  H     -168.234      35.361     191.073
  H     -162.980      29.903     190.560
  H     -167.212      35.860     193.627
  H     -169.670      34.201     192.833
  H     -169.374      34.730     194.489
  P     -166.271      36.730     190.192
  C     -165.748      35.351     188.023
  O     -166.693      36.067     188.795
  O     -164.742      37.146     189.984
  O     -167.117      37.887     190.605
  H     -164.561      37.998     190.421
  H     -166.217      34.988     187.132
  H     -165.375      34.525     188.592
  H     -164.938      35.999     187.761

 6  7  8  9  10  11  12  13  14  15  26  29  33  34 0
 6-311+G(2d,p)
 ****
 36  38  39  40  41 0
 6-311+G(2d,p)
 ****
 1  2  3  4  5  16  17  18  19  20  21  22  23  24  25 0
 3-21G
 ****
 27  28  30  31  32  35  37  42  43  44  45  46  47 0
 3-21G
 ****
 48  49 0
 3-21G
 ****


