%nproc=1
%NoSave
%Mem=1900MB
#P OB98/GEN NMR

erre ene a

0 1
  C      286.747      10.254    -229.839
  O      286.418      11.644    -229.921
  P      287.524      12.696    -229.429
  C      287.733      13.718    -231.814
  O      287.514      13.949    -230.426
  C      287.114      14.848    -232.639
  O      285.686      14.699    -232.740
  C      287.328      16.223    -232.027
  O      288.642      16.680    -232.281
  C      286.246      17.046    -232.713
  O      286.719      17.638    -233.936
  C      285.141      16.006    -232.998
  N      283.934      16.237    -232.219
  C      282.986      17.086    -232.800
  O      283.208      17.606    -233.896
  N      281.828      17.343    -232.113
  C      281.646      16.822    -230.938
  N      280.482      17.116    -230.302
  C      282.635      15.943    -230.279
  C      283.746      15.696    -230.970
  O      288.904      11.961    -229.768
  O      287.427      13.040    -227.978
  H      287.116      16.902    -234.447
  H      289.584      12.199    -229.113
  H      282.441      15.538    -229.297
  H      284.528      15.062    -230.562
  H      284.864      16.023    -234.060
  H      285.909      17.873    -232.076
  H      287.139      16.185    -230.948
  H      287.545      14.817    -233.651
  H      279.828      17.725    -230.781
  H      287.301      12.762    -232.110
  H      280.240      16.770    -229.385
  H      288.811      13.645    -231.994
  P      289.093      18.066    -231.612
  C      291.258      17.018    -230.717
  O      290.693      18.002    -231.561
  O      288.704      17.833    -230.073
  O      288.492      19.316    -232.158
  H      288.843      18.655    -229.565
  H      292.327      16.944    -230.931
  H      290.796      16.043    -230.898
  H      291.126      17.307    -229.671
  H      285.924       9.671    -230.197
  H      286.951       9.995    -228.821
  H      287.612      10.056    -230.437

 3  4  5  6  7  8  9  10  11  12  13  21  23  27  28  29  30  32 0
 6-311+G(2d,p)
 ****
 34  35 0
 6-311+G(2d,p)
 ****
 1  2  14  15  16  17  18  19  20  22  24  25  26 0
 3-21G
 ****
 31  33  36  37  38  39  40  41  42  43  44  45  46 0
 3-21G
 ****


