%nproc=1
%NoSave
%Mem=1900MB
#P OB98/GEN NMR

erre ene a

0 1
  C      -42.945     204.534     -50.255
  O      -42.089     205.237     -51.131
  H      -43.979     204.761     -50.524
  H      -42.773     204.846     -49.222
  H      -42.789     203.453     -50.345
  P      -40.508     204.979     -51.044
  C      -40.235     206.724     -49.169
  O      -40.053     205.369     -49.557
  C      -38.879     207.380     -48.914
  O      -39.042     208.794     -48.653
  C      -38.140     206.816     -47.706
  O      -37.572     205.554     -48.003
  C      -37.135     207.930     -47.451
  O      -36.024     207.848     -48.358
  C      -37.986     209.189     -47.752
  N      -38.529     209.808     -46.535
  C      -37.593     210.295     -45.625
  O      -36.381     210.218     -45.802
  N      -38.108     210.838     -44.476
  C      -39.429     210.854     -44.124
  O      -39.825     211.144     -42.997
  C      -40.371     210.397     -45.151
  C      -39.886     209.887     -46.286
  O      -39.689     205.585     -52.136
  O      -40.389     203.378     -51.042
  H      -40.137     203.075     -51.937
  H      -35.418     208.575     -48.123
  H      -37.440     211.148     -43.790
  H      -41.431     210.452     -44.937
  H      -40.566     209.514     -47.051
  H      -37.386     209.940     -48.277
  H      -36.725     207.899     -46.439
  H      -38.817     206.749     -46.846
  H      -38.274     207.275     -49.826
  H      -40.828     206.745     -48.244
  H      -40.782     207.253     -49.956
  P      -38.113     204.220     -47.303
  C      -35.824     203.637     -46.306
  O      -37.185     203.921     -46.029
  O      -38.294     203.056     -48.223
  O      -39.505     204.650     -46.644
  H      -40.203     204.037     -46.939
  H      -35.304     203.455     -45.389
  H      -35.380     204.471     -46.808
  H      -35.760     202.770     -46.930

 6  7  8  9  10  11  12  13  14  15  16  27  31  32  33  34  35 0
 6-311+G(2d,p)
 ****
 36  37 0
 6-311+G(2d,p)
 ****
 1  2  3  4  5  17  18  19  20  21  22  23  24  25 0
 3-21G
 ****
 26  28  29  30  38  39  40  41  42  43  44  45 0
 3-21G
 ****


