%nproc=1
%NoSave
%Mem=1900MB
#P OB98/GEN NMR

erre ene a

0 1
  C      152.948     207.569    -530.318
  O      151.906     207.575    -531.297
  P      151.481     206.163    -531.927
  C      149.071     206.017    -530.951
  O      150.392     205.483    -530.971
  C      148.191     205.203    -529.998
  O      148.652     205.309    -528.640
  C      146.746     205.681    -529.966
  O      146.043     205.219    -531.103
  C      146.250     205.092    -528.652
  O      145.699     203.776    -528.837
  C      147.528     205.032    -527.788
  N      147.483     205.951    -526.655
  C      146.555     205.645    -525.659
  O      145.816     204.661    -525.772
  N      146.474     206.472    -524.572
  C      147.227     207.523    -524.495
  N      147.091     208.312    -523.397
  C      148.199     207.894    -525.544
  C      148.274     207.068    -526.590
  O      152.781     205.255    -531.713
  O      151.096     206.238    -533.372
  H      144.964     203.889    -529.479
  H      152.873     204.614    -532.440
  H      148.801     208.786    -525.444
  H      148.964     207.267    -527.405
  H      147.678     204.017    -527.393
  H      145.458     205.709    -528.214
  H      146.717     206.777    -529.916
  H      148.229     204.147    -530.306
  H      146.411     208.026    -522.699
  H      148.645     206.004    -531.953
  H      147.622     209.154    -523.244
  H      149.117     207.067    -530.641
  P      146.122     206.105    -532.436
  C      147.009     204.146    -533.839
  O      147.284     205.430    -533.312
  O      146.836     207.438    -531.914
  O      144.842     206.397    -533.140
  H      146.855     208.110    -532.618
  H      147.779     203.899    -534.574
  H      146.036     204.130    -534.335
  H      147.040     203.404    -533.038
  H      153.129     208.569    -529.984
  H      153.842     207.170    -530.751
  H      152.653     206.964    -529.487

 3  4  5  6  7  8  9  10  11  12  13  21  23  27  28  29  30  32 0
 6-311+G(2d,p)
 ****
 34  35 0
 6-311+G(2d,p)
 ****
 1  2  14  15  16  17  18  19  20  22  24  25  26 0
 3-21G
 ****
 31  33  36  37  38  39  40  41  42  43  44  45  46 0
 3-21G
 ****


