%nproc=1
%NoSave
%Mem=1900MB
#P OB98/GEN NMR

erre ene a

0 1
  C      -95.064      85.849    -161.332
  O      -96.116      86.293    -162.167
  P      -97.487      86.809    -161.518
  C      -99.387      85.845    -160.072
  O      -98.186      85.560    -160.792
  C     -100.087      84.545    -159.672
  O     -100.618      83.880    -160.841
  C      -99.168      83.527    -159.007
  O      -98.913      83.882    -157.661
  C      -99.976      82.246    -159.184
  O     -100.989      82.143    -158.167
  C     -100.619      82.462    -160.564
  N     -100.374      78.060    -163.143
  C     -101.059      78.418    -162.033
  N     -101.037      79.606    -161.382
  C     -100.190      80.457    -161.981
  C      -99.402      80.223    -163.097
  C      -99.533      78.960    -163.710
  N      -98.893      78.609    -164.880
  N      -98.640      81.341    -163.396
  C      -98.959      82.223    -162.463
  N      -99.937      81.758    -161.629
  O      -98.379      87.583    -162.439
  O      -97.013      87.724    -160.294
  H     -101.589      81.418    -158.422
  H      -97.333      88.637    -160.422
  H     -101.708      77.654    -161.613
  H      -98.520      83.207    -162.363
  H     -101.671      82.138    -160.581
  H      -99.358      81.343    -159.118
  H      -98.230      83.438    -159.573
  H     -100.931      84.799    -159.010
  H     -100.041      86.438    -160.716
  H      -99.169      77.736    -165.307
  H      -98.513      79.349    -165.466
  H      -99.142      86.435    -159.181
  P      -97.476      83.574    -157.016
  C      -96.105      81.441    -156.622
  O      -97.400      81.992    -156.782
  O      -97.103      84.418    -155.840
  O      -96.460      83.799    -158.237
  H      -95.604      84.129    -157.897
  H      -95.622      81.351    -157.601
  H      -96.196      80.446    -156.177
  H      -95.487      82.069    -155.970
  H      -94.234      85.544    -161.935
  H      -95.401      85.021    -160.744
  H      -94.761      86.646    -160.685

 3  4  5  6  7  8  9  10  11  12  22  25  29  30  31  32 0
 6-311+G(2d,p)
 ****
 33  36  37 0
 6-311+G(2d,p)
 ****
 1  2  13  14  15  16  17  18  19  20  21  23  24  26 0
 3-21G
 ****
 27  28  34  35  38  39  40  41  42  43  44  45  46  47  48 0
 3-21G
 ****


