%nproc=1
%NoSave
%Mem=1900MB
#P OB98/GEN NMR

erre ene a

0 1
  C      420.118     662.622    -899.445
  O      419.867     662.801    -898.045
  P      421.058     662.491    -897.025
  C      421.096     664.927    -896.065
  O      420.962     663.539    -895.805
  C      420.247     665.759    -895.085
  O      418.830     665.713    -895.425
  C      420.344     665.267    -893.615
  O      421.516     665.751    -892.975
  C      419.089     665.874    -893.035
  O      419.344     667.269    -892.705
  C      418.073     665.758    -894.185
  N      413.580     663.979    -892.695
  C      414.062     665.245    -892.705
  N      413.246     666.236    -892.235
  N      415.275     665.595    -893.095
  C      415.991     664.543    -893.555
  C      415.596     663.209    -893.645
  C      414.261     662.850    -893.165
  O      413.777     661.733    -893.145
  N      416.597     662.408    -894.185
  C      417.582     663.280    -894.435
  N      417.250     664.557    -894.055
  O      422.336     663.041    -897.825
  O      421.228     661.046    -896.645
  H      418.503     667.650    -892.365
  H      423.146     662.560    -897.545
  H      412.647     663.771    -892.375
  H      418.519     662.985    -894.875
  H      417.405     666.630    -894.215
  H      418.797     665.393    -892.085
  H      412.291     666.035    -891.915
  H      420.286     664.176    -893.575
  H      413.574     667.169    -892.215
  H      420.598     666.797    -895.135
  H      420.777     665.164    -897.095
  H      422.155     665.200    -896.005
  P      421.926     665.112    -891.585
  C      424.179     664.103    -892.415
  O      423.533     665.057    -891.575
  O      421.489     663.583    -891.735
  O      421.315     665.773    -890.365
  H      421.204     663.226    -890.875
  H      425.271     664.312    -892.395
  H      423.808     664.182    -893.435
  H      424.015     663.074    -892.045
  H      419.236     662.866    -900.000
  H      420.387     661.603    -899.632
  H      420.919     663.263    -899.749

 3  4  5  6  7  8  9  10  11  12  23  26  30  31 0
 6-311+G(2d,p)
 ****
 33  35  36  37  38 0
 6-311+G(2d,p)
 ****
 1  2  13  14  15  16  17  18  19  20  21  22  24  25 0
 3-21G
 ****
 27  28  29  32  34  39  40  41  42  43  44  45  46  47  48  49 0
 3-21G
 ****


