%nproc=1
%NoSave
%Mem=1900MB
#P OB98/GEN NMR

erre ene a

0 1
  C     -663.385     298.341    -238.110
  O     -663.758     299.691    -238.320
  H     -662.368     298.317    -237.714
  H     -663.413     297.787    -239.051
  H     -664.056     297.879    -237.381
  P     -665.218     299.944    -238.935
  C     -664.671     300.611    -241.379
  O     -665.063     299.574    -240.490
  C     -665.841     301.021    -242.276
  O     -666.348     299.876    -242.984
  C     -667.025     301.616    -241.529
  O     -666.813     302.999    -241.282
  C     -668.144     301.399    -242.539
  O     -668.096     302.434    -243.540
  C     -667.771     300.044    -243.166
  N     -672.255     297.590    -242.726
  C     -671.953     298.814    -243.206
  N     -670.753     299.423    -243.241
  C     -669.795     298.630    -242.725
  C     -669.958     297.358    -242.194
  C     -671.261     296.829    -242.212
  N     -671.569     295.582    -241.725
  N     -668.759     296.853    -241.751
  C     -667.875     297.776    -242.063
  N     -668.455     298.888    -242.616
  O     -665.826     301.270    -238.631
  O     -666.015     298.680    -238.358
  H     -667.199     302.415    -243.928
  H     -665.461     297.881    -238.398
  H     -672.786     299.382    -243.607
  H     -666.807     297.684    -241.921
  H     -667.969     300.035    -244.250
  H     -669.134     301.440    -242.086
  H     -667.254     301.061    -240.612
  H     -665.455     301.725    -243.026
  H     -663.827     300.281    -241.997
  H     -672.551     295.365    -241.599
  H     -670.853     295.075    -241.229
  H     -664.345     301.463    -240.772
  P     -667.609     303.762    -240.116
  C     -669.048     305.573    -241.238
  O     -668.991     304.221    -240.790
  O     -666.827     304.839    -239.435
  O     -668.065     302.599    -239.124
  H     -668.326     302.984    -238.255
  H     -670.009     305.766    -241.667
  H     -668.289     305.737    -241.974
  H     -668.889     306.230    -240.409

 6  7  8  9  10  11  12  13  14  15  25  28  32  33  34  35 0
 6-311+G(2d,p)
 ****
 36  39  40 0
 6-311+G(2d,p)
 ****
 1  2  3  4  5  16  17  18  19  20  21  22  23  24 0
 3-21G
 ****
 26  27  29  30  31  37  38  41  42  43  44  45  46  47 0
 3-21G
 ****
 48 0
 3-21G
 ****


