%nproc=1
%NoSave
%Mem=1900MB
#P OB98/GEN NMR

erre ene a

0 1
  C     -157.445     386.024    -209.731
  O     -156.656     384.994    -209.163
  H     -157.181     386.974    -209.260
  H     -158.503     385.825    -209.551
  H     -157.259     386.100    -210.807
  P     -156.725     383.564    -209.882
  C     -154.165     383.586    -210.457
  O     -155.502     383.492    -210.928
  C     -153.485     382.218    -210.541
  O     -153.604     381.664    -211.865
  C     -151.985     382.248    -210.297
  O     -151.658     382.469    -208.940
  C     -151.590     380.870    -210.804
  O     -151.765     379.864    -209.798
  C     -152.576     380.653    -211.976
  N     -151.899     380.686    -213.261
  C     -150.765     379.862    -213.365
  O     -150.421     379.164    -212.409
  N     -150.045     379.882    -214.528
  C     -150.395     380.671    -215.494
  N     -149.616     380.668    -216.609
  C     -151.584     381.557    -215.431
  C     -152.281     381.511    -214.293
  O     -158.007     383.716    -210.828
  O     -156.788     382.397    -208.952
  H     -151.026     379.974    -209.162
  H     -158.006     384.530    -211.360
  H     -151.841     382.185    -216.266
  H     -153.166     382.127    -214.155
  H     -153.082     379.680    -211.880
  H     -150.534     380.836    -211.101
  H     -151.513     383.000    -210.946
  H     -153.989     381.540    -209.833
  H     -148.779     380.094    -216.595
  H     -154.142     383.958    -209.427
  H     -149.748     381.298    -217.389
  H     -153.639     384.311    -211.082
  P     -150.244     383.085    -208.514
  C     -151.120     385.499    -208.282
  O     -150.249     384.624    -208.989
  O     -149.047     382.306    -208.954
  O     -150.375     383.226    -206.921
  H     -151.105     383.798    -206.621
  H     -151.037     386.487    -208.684
  H     -150.850     385.512    -207.247
  H     -152.129     385.157    -208.383

 6  7  8  9  10  11  12  13  14  15  16  26  30  31  32  33  35 0
 6-311+G(2d,p)
 ****
 37  38 0
 6-311+G(2d,p)
 ****
 1  2  3  4  5  17  18  19  20  21  22  23  24  25 0
 3-21G
 ****
 27  28  29  34  36  39  40  41  42  43  44  45  46 0
 3-21G
 ****


