%nproc=1
%NoSave
%Mem=1900MB
#P OB98/GEN NMR

erre ene a

0 1
  C     -221.517     205.396    -178.129
  O     -220.429     206.274    -177.905
  P     -218.988     205.826    -178.445
  C     -217.675     203.574    -178.389
  O     -218.650     204.410    -177.779
  C     -217.052     202.656    -177.336
  O     -218.077     201.892    -176.664
  C     -216.090     201.628    -177.916
  O     -214.826     202.203    -178.200
  C     -216.048     200.586    -176.808
  O     -215.115     200.962    -175.782
  C     -217.493     200.631    -176.274
  N     -218.295     199.499    -176.726
  C     -217.981     198.265    -176.162
  O     -217.072     198.117    -175.345
  N     -218.723     197.202    -176.597
  C     -219.687     197.237    -177.562
  O     -220.278     196.237    -177.951
  C     -219.955     198.561    -178.145
  C     -219.254     199.613    -177.713
  O     -217.978     206.837    -177.725
  O     -218.843     205.860    -179.930
  H     -214.231     200.963    -176.197
  H     -217.238     207.051    -178.326
  H     -218.528     196.305    -176.183
  H     -220.713     198.627    -178.914
  H     -219.427     200.594    -178.141
  H     -217.490     200.629    -175.176
  H     -215.738     199.604    -177.176
  H     -216.524     201.176    -178.816
  H     -216.545     203.278    -176.589
  H     -216.899     204.195    -178.842
  H     -218.152     202.986    -179.178
  P     -213.843     201.366    -179.154
  C     -212.752     199.001    -178.941
  O     -213.527     200.018    -178.346
  O     -212.506     202.241    -179.047
  O     -214.374     201.201    -180.538
  H     -212.411     202.660    -178.176
  H     -211.967     199.417    -179.578
  H     -213.399     198.354    -179.536
  H     -212.286     198.407    -178.151
  H     -222.409     205.821    -177.718
  H     -221.320     204.456    -177.657
  H     -221.645     205.247    -179.181

 3  4  5  6  7  8  9  10  11  12  13  23  28  29  30  31  32 0
 6-311+G(2d,p)
 ****
 33  34 0
 6-311+G(2d,p)
 ****
 1  2  14  15  16  17  18  19  20  21  22  24  25  26 0
 3-21G
 ****
 27  35  36  37  38  39  40  41  42  43  44  45 0
 3-21G
 ****


