%nproc=1
%NoSave
%Mem=1900MB
#P OB98/GEN NMR

erre ene a

0 1
  C     -162.601     545.304    -296.009
  O     -161.555     545.965    -296.690
  H     -163.398     546.026    -295.802
  H     -162.240     544.901    -295.058
  H     -163.003     544.498    -296.624
  P     -160.239     545.095    -296.986
  C     -160.857     544.067    -299.302
  O     -160.783     543.885    -297.891
  C     -159.828     543.167    -299.991
  O     -158.485     543.521    -299.582
  C     -159.975     541.689    -299.653
  O     -161.016     541.062    -300.383
  C     -158.611     541.180    -300.074
  O     -158.546     541.090    -301.515
  C     -157.694     542.313    -299.553
  N     -157.187     542.063    -298.205
  C     -156.256     541.027    -298.065
  O     -155.902     540.363    -299.039
  N     -155.769     540.745    -296.815
  C     -156.161     541.433    -295.790
  N     -155.653     541.101    -294.567
  C     -157.123     542.542    -295.887
  C     -157.591     542.801    -297.114
  O     -159.944     544.371    -295.587
  O     -159.072     545.837    -297.558
  H     -159.215     540.439    -301.789
  H     -159.216     543.708    -295.698
  H     -157.433     543.093    -295.009
  H     -158.308     543.598    -297.264
  H     -156.838     542.465    -300.222
  H     -158.374     540.185    -299.682
  H     -160.091     541.530    -298.579
  H     -159.901     543.344    -301.069
  H     -155.041     540.296    -294.518
  H     -160.650     545.114    -299.528
  H     -156.043     541.462    -293.705
  H     -161.855     543.811    -299.660
  P     -161.577     539.662    -299.820
  C     -164.000     540.536    -299.481
  O     -162.824     540.012    -298.868
  O     -160.449     539.209    -298.781
  O     -161.833     538.621    -300.865
  H     -160.300     538.253    -298.818
  H     -164.741     540.720    -298.731
  H     -164.378     539.829    -300.190
  H     -163.764     541.452    -299.982

 6  7  8  9  10  11  12  13  14  15  16  26  30  31  32  33  35 0
 6-311+G(2d,p)
 ****
 37  38 0
 6-311+G(2d,p)
 ****
 1  2  3  4  5  17  18  19  20  21  22  23  24  25 0
 3-21G
 ****
 27  28  29  34  36  39  40  41  42  43  44  45  46 0
 3-21G
 ****


