%nproc=1
%NoSave
%Mem=1900MB
#P OB98/GEN NMR

erre ene a

0 1
  C       57.680     146.425     177.662
  O       56.310     146.827     177.638
  P       55.889     148.221     178.307
  C       55.757     147.139     180.645
  O       56.293     148.196     179.860
  C       56.027     147.373     182.141
  O       57.457     147.360     182.391
  C       55.469     148.713     182.648
  O       54.670     148.579     183.824
  C       56.709     149.581     182.783
  O       56.539     150.649     183.703
  C       57.806     148.561     183.107
  N       59.139     149.055     182.748
  C       60.112     148.993     183.735
  O       59.883     148.623     184.888
  N       61.361     149.433     183.377
  C       61.696     149.989     182.180
  O       62.817     150.412     181.921
  C       60.609     150.087     181.192
  C       59.400     149.621     181.518
  O       54.498     148.682     178.021
  O       56.963     149.248     177.693
  H       56.268     150.274     184.569
  H       56.500     150.091     177.511
  H       62.082     149.380     184.079
  H       60.834     150.541     180.239
  H       58.578     149.691     180.816
  H       57.822     148.328     184.178
  H       56.926     150.032     181.806
  H       54.791     149.165     181.916
  H       55.571     146.540     182.686
  H       56.219     146.198     180.347
  H       54.687     147.038     180.438
  P       53.074     148.466     183.825
  C       52.452     150.977     183.655
  O       52.481     149.715     183.017
  O       52.441     148.218     185.153
  O       52.798     147.229     182.843
  H       52.073     146.688     183.205
  H       51.711     151.606     183.150
  H       53.433     151.451     183.570
  H       52.174     150.886     184.708
  H       57.782     145.478     177.175
  H       58.010     146.342     178.677
  H       58.275     147.154     177.152

 3  4  5  6  7  8  9  10  11  12  13  23  28  29  30  31  32 0
 6-311+G(2d,p)
 ****
 33  34 0
 6-311+G(2d,p)
 ****
 1  2  14  15  16  17  18  19  20  21  22  24  25  26  27 0
 3-21G
 ****
 35  36  37  38  39  40  41  42  43  44  45 0
 3-21G
 ****


