%nproc=1
%NoSave
%Mem=1900MB
#P OB98/GEN NMR

erre ene a

0 1
  C      -77.059    -392.035    -251.012
  O      -76.420    -393.149    -250.414
  H      -77.490    -392.350    -251.967
  H      -76.332    -391.237    -251.200
  H      -77.860    -391.668    -250.364
  P      -75.665    -392.870    -249.023
  C      -73.379    -392.967    -250.245
  O      -74.245    -392.221    -249.402
  C      -71.934    -392.865    -249.755
  O      -71.071    -393.731    -250.525
  C      -71.341    -391.462    -249.840
  O      -71.706    -390.686    -248.712
  C      -69.851    -391.771    -249.883
  O      -69.343    -392.048    -248.558
  C      -69.811    -393.038    -250.757
  N      -66.404    -392.707    -254.475
  C      -66.229    -392.891    -253.116
  N      -64.955    -392.980    -252.676
  N      -67.213    -392.980    -252.262
  C      -68.433    -392.821    -252.828
  C      -68.741    -392.628    -254.158
  C      -67.641    -392.590    -255.104
  O      -67.739    -392.512    -256.328
  N      -70.097    -392.528    -254.346
  C      -70.607    -392.629    -253.132
  N      -69.636    -392.801    -252.174
  O      -75.276    -394.340    -248.512
  O      -76.462    -392.136    -247.998
  H      -69.778    -392.847    -248.213
  H      -75.379    -394.370    -247.542
  H      -65.613    -392.681    -255.091
  H      -71.659    -392.592    -252.891
  H      -69.009    -393.717    -250.449
  H      -69.274    -390.926    -250.266
  H      -64.179    -392.637    -253.223
  H      -71.635    -390.966    -250.776
  H      -64.827    -393.039    -251.674
  H      -71.912    -393.228    -248.719
  H      -73.449    -392.572    -251.260
  H      -73.694    -394.017    -250.243
  P      -72.158    -389.163    -248.953
  C      -69.626    -388.589    -248.857
  O      -70.878    -388.346    -249.481
  O      -72.363    -388.618    -247.460
  O      -73.403    -389.009    -249.761
  H      -73.320    -388.542    -247.265
  H      -68.876    -387.977    -249.312
  H      -69.364    -389.620    -248.973
  H      -69.695    -388.353    -247.816

 6  7  8  9  10  11  12  13  14  15  26  29  33  34 0
 6-311+G(2d,p)
 ****
 36  38  39  40  41 0
 6-311+G(2d,p)
 ****
 1  2  3  4  5  16  17  18  19  20  21  22  23  24  25 0
 3-21G
 ****
 27  28  30  31  32  35  37  42  43  44  45  46  47 0
 3-21G
 ****
 48  49 0
 3-21G
 ****


