%nproc=1
%NoSave
%Mem=1900MB
#P OB98/GEN NMR

erre ene a

0 1
  C      346.532    -298.262    -438.686
  O      347.805    -298.872    -438.835
  H      346.684    -297.199    -438.467
  H      345.995    -298.710    -437.851
  H      345.949    -298.355    -439.604
  P      347.868    -300.417    -439.256
  C      348.499    -299.989    -441.716
  O      347.509    -300.486    -440.826
  C      348.406    -300.703    -443.060
  O      347.197    -300.273    -443.739
  C      349.591    -300.405    -443.998
  O      349.916    -301.599    -444.715
  C      349.037    -299.364    -444.954
  O      349.707    -299.380    -446.215
  C      347.563    -299.772    -445.037
  N      346.031    -296.920    -448.921
  C      346.844    -298.044    -448.899
  N      347.341    -298.452    -450.088
  N      347.139    -298.700    -447.808
  C      346.559    -298.183    -446.701
  C      345.742    -297.084    -446.589
  C      345.437    -296.357    -447.792
  O      344.730    -295.353    -447.868
  N      345.378    -296.865    -445.272
  C      345.974    -297.829    -444.599
  N      346.710    -298.650    -445.415
  O      347.078    -301.355    -438.399
  O      349.436    -300.762    -439.221
  H      350.592    -298.954    -446.080
  H      349.669    -301.223    -438.400
  H      345.845    -296.450    -449.784
  H      345.919    -297.982    -443.534
  H      347.400    -300.561    -445.780
  H      349.148    -298.361    -444.522
  H      347.136    -298.006    -450.969
  H      350.476    -300.044    -443.464
  H      347.921    -299.288    -450.103
  H      348.312    -301.776    -442.888
  H      349.488    -300.166    -441.265
  H      348.358    -298.910    -441.848
  P      351.207    -302.438    -444.276
  C      350.023    -303.689    -442.368
  O      351.075    -302.795    -442.721
  O      352.521    -301.860    -444.693
  O      350.964    -303.858    -444.985
  H      351.833    -304.260    -445.199
  H      350.033    -303.852    -441.311
  H      350.162    -304.621    -442.874
  H      349.083    -303.265    -442.654

 6  7  8  9  10  11  12  13  14  15  26  29  33  34 0
 6-311+G(2d,p)
 ****
 36  38  39  40  41 0
 6-311+G(2d,p)
 ****
 1  2  3  4  5  16  17  18  19  20  21  22  23  24  25 0
 3-21G
 ****
 27  28  30  31  32  35  37  42  43  44  45  46  47 0
 3-21G
 ****
 48  49 0
 3-21G
 ****


