%nproc=1
%NoSave
%Mem=1900MB
#P OB98/GEN NMR

erre ene a

0 1
  C      -66.008      -7.718    -277.220
  O      -66.399      -8.970    -277.793
  P      -67.921      -9.437    -277.572
  C      -69.183      -7.962    -279.327
  O      -68.655      -9.235    -278.989
  C      -68.961      -7.653    -280.814
  O      -67.567      -7.264    -281.032
  C      -69.263      -8.824    -281.756
  O      -69.850      -8.262    -282.946
  C      -67.890      -9.392    -282.061
  O      -67.879     -10.139    -283.272
  C      -67.058      -8.101    -282.089
  N      -65.624      -8.358    -281.932
  C      -65.151      -9.596    -282.369
  O      -65.892     -10.482    -282.790
  N      -63.802      -9.788    -282.261
  C      -62.907      -8.925    -281.691
  O      -61.706      -9.151    -281.619
  C      -63.484      -7.681    -281.140
  C      -64.795      -7.460    -281.288
  O      -68.488      -8.257    -276.654
  O      -68.031     -10.808    -276.982
  H      -68.129      -7.379    -276.891
  H      -68.138      -9.548    -284.013
  H      -63.434     -10.668    -282.597
  H      -62.814      -6.997    -280.630
  H      -65.251      -6.566    -280.876
  H      -67.209      -7.571    -283.035
  H      -67.564     -10.048    -281.245
  H      -69.959      -9.558    -281.322
  H      -69.583      -6.788    -281.080
  H      -68.691      -7.186    -278.729
  H      -70.254      -7.933    -279.074
  P      -71.443      -8.402    -283.149
  C      -71.886      -6.114    -281.940
  O      -72.057      -6.919    -283.089
  O      -71.853      -9.022    -281.724
  O      -71.862      -9.265    -284.297
  H      -71.451      -8.551    -280.972
  H      -72.157      -5.086    -282.189
  H      -70.843      -6.126    -281.602
  H      -72.536      -6.474    -281.133
  H      -64.978      -7.531    -277.441
  H      -66.144      -7.753    -276.159
  H      -66.609      -6.934    -277.631

 3  4  5  6  7  8  9  10  11  12  13  24  28  29  30  31  32 0
 6-311+G(2d,p)
 ****
 33  34 0
 6-311+G(2d,p)
 ****
 1  2  14  15  16  17  18  19  20  21  22  23  25  26  27 0
 3-21G
 ****
 35  36  37  38  39  40  41  42  43  44  45 0
 3-21G
 ****


