%nproc=1
%NoSave
%Mem=1900MB
#P OB98/GEN NMR

erre ene a

0 1
  C     -115.598      41.896     -56.647
  O     -115.840      40.572     -57.067
  H     -116.314      42.556     -57.146
  H     -114.586      42.194     -56.936
  H     -115.718      42.002     -55.566
  P     -115.257      39.368     -56.189
  C     -112.972      39.679     -57.347
  O     -113.663      39.546     -56.111
  C     -111.469      39.873     -57.143
  O     -111.210      41.154     -56.527
  C     -110.869      38.824     -56.206
  O     -110.519      37.595     -56.816
  C     -109.633      39.547     -55.680
  O     -108.523      39.384     -56.579
  C     -110.084      41.009     -55.643
  N     -108.470      42.282     -50.966
  C     -107.743      41.793     -52.033
  N     -106.432      41.559     -51.805
  N     -108.264      41.541     -53.205
  C     -109.604      41.731     -53.257
  C     -110.433      42.199     -52.262
  C     -109.836      42.528     -50.984
  O     -110.437      42.957     -50.004
  N     -111.739      42.266     -52.685
  C     -111.709      41.768     -53.905
  N     -110.431      41.455     -54.306
  O     -115.415      38.091     -57.148
  O     -115.942      39.142     -54.875
  H     -107.866      40.077     -56.384
  H     -115.489      37.281     -56.613
  H     -108.012      42.485     -50.095
  H     -112.574      41.640     -54.547
  H     -109.299      41.680     -56.014
  H     -109.314      39.150     -54.711
  H     -106.014      41.627     -50.890
  H     -111.543      38.638     -55.363
  H     -105.931      40.960     -52.465
  H     -110.970      39.877     -58.120
  H     -113.396      40.551     -57.851
  H     -113.163      38.811     -57.984
  P     -110.865      36.212     -56.090
  C     -108.749      36.165     -54.574
  O     -110.156      36.248     -54.653
  O     -109.999      35.151     -56.917
  O     -112.312      35.855     -56.073
  H     -110.551      34.723     -57.598
  H     -108.446      36.203     -53.548
  H     -108.313      36.985     -55.105
  H     -108.421      35.244     -55.008

 6  7  8  9  10  11  12  13  14  15  26  29  33  34 0
 6-311+G(2d,p)
 ****
 36  38  39  40  41 0
 6-311+G(2d,p)
 ****
 1  2  3  4  5  16  17  18  19  20  21  22  23  24  25 0
 3-21G
 ****
 27  28  30  31  32  35  37  42  43  44  45  46  47 0
 3-21G
 ****
 48  49 0
 3-21G
 ****


