%nproc=1
%NoSave
%Mem=1900MB
#P OB98/GEN NMR

erre ene a

0 1
  C      -25.494     -45.681     -51.490
  O      -24.535     -46.258     -50.620
  P      -24.960     -47.578     -49.811
  C      -24.351     -46.553     -47.500
  O      -25.364     -47.095     -48.336
  C      -24.838     -46.488     -46.056
  O      -25.973     -45.605     -45.938
  C      -25.310     -47.824     -45.496
  O      -24.235     -48.637     -45.059
  C      -26.145     -47.365     -44.312
  O      -25.287     -47.048     -43.199
  C      -26.805     -46.092     -44.857
  N      -31.564     -47.143     -43.503
  C      -30.483     -46.785     -42.723
  N      -30.686     -46.761     -41.389
  N      -29.309     -46.474     -43.206
  C      -29.250     -46.550     -44.559
  C      -30.253     -46.890     -45.438
  C      -31.543     -47.243     -44.888
  O      -32.522     -47.620     -45.522
  N      -29.817     -46.846     -46.734
  C      -28.554     -46.478     -46.646
  N      -28.152     -46.328     -45.344
  O      -23.569     -48.335     -49.581
  O      -25.961     -48.439     -50.506
  H      -24.702     -46.323     -43.495
  H      -23.731     -49.268     -49.345
  H      -32.447     -47.379     -43.082
  H      -27.893     -46.326     -47.489
  H      -26.853     -45.301     -44.101
  H      -26.846     -48.129     -43.964
  H      -31.549     -47.050     -40.950
  H      -25.954     -48.350     -46.212
  H      -29.895     -46.563     -40.788
  H      -24.026     -46.079     -45.441
  H      -24.097     -45.549     -47.846
  H      -23.455     -47.178     -47.569
  P      -24.612     -50.095     -44.501
  C      -24.009     -49.504     -42.045
  O      -25.015     -49.872     -42.968
  O      -23.193     -50.829     -44.424
  O      -25.593     -50.843     -45.341
  H      -23.305     -51.795     -44.503
  H      -24.488     -49.139     -41.132
  H      -23.377     -48.709     -42.448
  H      -23.396     -50.374     -41.797
  H      -25.075     -44.815     -51.958
  H      -26.361     -45.400     -50.929
  H      -25.770     -46.393     -52.240

 3  4  5  6  7  8  9  10  11  12  23  26  30  31 0
 6-311+G(2d,p)
 ****
 33  35  36  37  38 0
 6-311+G(2d,p)
 ****
 1  2  13  14  15  16  17  18  19  20  21  22  24  25 0
 3-21G
 ****
 27  28  29  32  34  39  40  41  42  43  44  45  46  47  48  49 0
 3-21G
 ****


