%nproc=1
%NoSave
%Mem=1900MB
#P OB98/GEN NMR

erre ene a

0 1
  C     -899.251     901.970    -899.239
  O     -899.601     903.014    -898.309
  P     -898.611     903.288    -897.079
  C     -898.571     905.888    -896.909
  O     -897.901     904.694    -897.309
  C     -897.651     906.845    -896.109
  O     -897.141     906.193    -894.899
  C     -896.401     907.317    -896.909
  O     -896.061     908.591    -896.459
  C     -895.341     906.284    -896.459
  O     -894.021     906.789    -896.739
  C     -895.691     906.165    -894.989
  N     -895.391     903.511    -890.699
  C     -896.001     904.744    -890.949
  N     -896.611     905.347    -889.929
  N     -895.971     905.343    -892.099
  C     -895.321     904.608    -893.059
  C     -894.701     903.403    -892.939
  C     -894.711     902.771    -891.609
  O     -894.191     901.681    -891.349
  N     -894.141     902.970    -894.119
  C     -894.401     903.963    -894.969
  N     -895.181     904.959    -894.399
  O     -897.441     902.212    -897.319
  O     -899.251     903.088    -895.739
  H     -893.901     907.577    -896.169
  H     -897.501     901.510    -896.649
  H     -895.461     903.121    -889.769
  H     -894.111     903.990    -895.999
  H     -895.321     906.999    -894.389
  H     -895.461     905.344    -896.989
  H     -896.731     904.938    -889.009
  H     -896.561     907.303    -898.019
  H     -897.101     906.226    -890.099
  H     -898.251     907.726    -895.819
  H     -899.451     905.603    -896.279
  H     -899.001     906.368    -897.799
  P     -895.811     909.704    -897.599
  C     -898.241     910.572    -897.449
  O     -897.251     910.005    -898.289
  O     -895.001     908.966    -898.719
  O     -895.071     910.966    -897.109
  H     -894.491     909.561    -899.259
  H     -898.341     911.653    -897.699
  H     -898.041     910.463    -896.379
  H     -899.211     910.084    -897.669
  H     -900.000     901.904    -900.000
  H     -899.187     901.037    -898.720
  H     -898.305     902.194    -899.687

 3  4  5  6  7  8  9  10  11  12  23  26  30  31 0
 6-311+G(2d,p)
 ****
 33  35  36  37  38 0
 6-311+G(2d,p)
 ****
 1  2  13  14  15  16  17  18  19  20  21  22  24  25 0
 3-21G
 ****
 27  28  29  32  34  39  40  41  42  43  44  45  46  47  48  49 0
 3-21G
 ****


