%nproc=1
%NoSave
%Mem=1900MB
#P OB98/GEN NMR

erre ene a

0 1
  C      636.041     202.386    -286.714
  O      636.455     202.046    -285.395
  P      636.960     203.238    -284.447
  C      637.588     203.419    -281.935
  O      637.040     202.612    -282.974
  C      637.141     202.913    -280.564
  O      635.723     203.076    -280.428
  C      637.404     201.431    -280.331
  O      638.749     201.185    -279.947
  C      636.451     201.146    -279.180
  O      637.051     201.554    -277.935
  C      635.250     202.050    -279.515
  N      631.817     198.357    -278.995
  C      632.782     198.808    -278.105
  N      632.814     198.204    -276.899
  N      633.632     199.757    -278.385
  C      633.454     200.296    -279.610
  C      632.542     199.936    -280.580
  C      631.634     198.853    -280.284
  O      630.810     198.368    -281.052
  N      632.661     200.731    -281.696
  C      633.610     201.592    -281.390
  N      634.152     201.347    -280.147
  O      635.677     204.201    -284.365
  O      638.170     203.965    -284.927
  H      637.228     202.512    -278.009
  H      635.961     205.118    -284.167
  H      631.177     197.640    -278.728
  H      633.945     202.394    -282.030
  H      634.869     202.555    -278.620
  H      636.203     200.085    -279.081
  H      632.105     197.555    -276.591
  H      637.120     200.831    -281.209
  H      633.487     198.541    -276.225
  H      637.636     203.523    -279.799
  H      637.235     204.454    -282.061
  H      638.681     203.413    -282.015
  P      639.190     199.644    -279.806
  C      641.456     198.470    -279.304
  O      640.782     199.671    -279.643
  O      638.958     199.058    -281.278
  O      638.428     198.887    -278.762
  H      638.791     198.099    -281.236
  H      640.989     197.604    -279.778
  H      641.448     198.340    -278.220
  H      642.494     198.540    -279.644
  H      635.732     201.501    -287.230
  H      636.857     202.838    -287.238
  H      635.223     203.074    -286.665

 3  4  5  6  7  8  9  10  11  12  23  26  30  31  33  0
 6-311+G(2d,p)
 ****
 35  36  37  38 0
 6-311+G(2d,p)
 ****
 1  2  13  14  15  16  17  18  19  20  21  22  24  25  27  28  29 0
 3-21G
 ****
 32  34  39  40  41  42  43  44  45  46  47  48  49 0
 3-21G
 ****


