%nproc=1
%NoSave
%Mem=1900MB
#P OB98/GEN NMR

erre ene a

0 1
  C     -684.704    -899.120     580.869
  O     -685.817    -898.330     580.527
  H     -684.810    -899.470     581.898
  H     -683.771    -898.530     580.801
  H     -684.626    -900.000     580.209
  P     -685.892    -897.700     579.060
  C     -684.940    -895.440     579.870
  O     -686.048    -896.120     579.262
  C     -684.604    -894.190     579.043
  O     -683.995    -894.550     577.789
  C     -685.820    -893.310     578.703
  O     -686.179    -892.500     579.811
  C     -685.271    -892.530     577.524
  O     -684.387    -891.490     578.001
  C     -684.462    -893.600     576.776
  N     -685.345    -894.220     571.820
  C     -684.542    -893.290     572.483
  N     -683.907    -892.400     571.705
  N     -684.380    -893.270     573.776
  C     -685.125    -894.200     574.425
  C     -685.970    -895.150     573.884
  C     -686.103    -895.200     572.457
  O     -686.761    -896.020     571.827
  N     -686.595    -895.880     574.871
  C     -686.097    -895.390     575.999
  N     -685.213    -894.360     575.768
  O     -686.902    -898.300     578.127
  O     -684.408    -897.860     578.495
  H     -684.113    -890.980     577.201
  H     -684.291    -898.700     577.997
  H     -685.447    -894.190     570.820
  H     -686.353    -895.750     576.984
  H     -683.575    -893.200     576.278
  H     -686.062    -892.060     576.929
  H     -684.225    -892.170     570.754
  H     -686.658    -893.930     578.362
  H     -683.373    -891.680     572.155
  H     -683.871    -893.610     579.618
  H     -684.095    -896.130     579.869
  H     -685.172    -895.160     580.884
  P     -687.430    -892.870     580.758
  C     -688.034    -890.470     581.448
  O     -687.482    -891.720     581.842
  O     -687.396    -894.250     581.307
  O     -688.697    -892.560     579.852
  H     -688.984    -893.340     579.296
  H     -688.006    -889.791     582.275
  H     -689.048    -890.610     581.136
  H     -687.464    -890.068     580.637

 6  7  8  9  10  11  12  13  14  15  26  29  33  34 0
 6-311+G(2d,p)
 ****
 36  38  39  40  41 0
 6-311+G(2d,p)
 ****
 1  2  3  4  5  16  17  18  19  20  21  22  23  24  25 0
 3-21G
 ****
 27  28  30  31  32  35  37  42  43  44  45  46  47 0
 3-21G
 ****
 48  49 0
 3-21G
 ****


