%nproc=1
%NoSave
%Mem=1900MB
#P OB98/GEN NMR

erre ene a

0 1
  C      -22.868     189.133     -51.316
  O      -24.214     188.986     -50.921
  H      -22.231     188.631     -50.583
  H      -22.607     190.195     -51.340
  H      -22.689     188.689     -52.299
  P      -25.365     189.211     -52.008
  C      -26.730     191.381     -51.703
  O      -25.546     190.793     -52.226
  C      -26.503     191.963     -50.307
  O      -25.309     192.776     -50.308
  C      -27.653     192.868     -49.854
  O      -28.722     192.186     -49.220
  C      -26.949     193.809     -48.880
  O      -26.933     193.267     -47.548
  C      -25.525     193.898     -49.440
  N      -24.687     198.936     -49.155
  C      -25.082     198.065     -48.157
  N      -25.317     198.619     -46.946
  N      -25.246     196.781     -48.344
  C      -25.072     196.392     -49.628
  C      -24.699     197.166     -50.705
  C      -24.449     198.573     -50.473
  O      -24.082     199.382     -51.319
  N      -24.662     196.431     -51.866
  C      -25.093     195.239     -51.502
  N      -25.278     195.145     -50.142
  O      -26.705     188.817     -51.218
  O      -25.235     188.401     -53.262
  H      -27.857     193.199     -47.241
  H      -27.354     188.446     -51.842
  H      -24.550     199.909     -48.944
  H      -25.246     194.400     -52.171
  H      -24.777     193.829     -48.640
  H      -27.467     194.770     -48.823
  H      -25.291     199.610     -46.769
  H      -28.030     193.464     -50.691
  H      -25.788     198.050     -46.240
  H      -26.333     191.145     -49.596
  H      -27.477     190.587     -51.660
  H      -27.106     192.152     -52.383
  P      -30.141     192.893     -49.016
  C      -30.603     193.908     -46.638
  O      -29.985     194.024     -47.900
  O      -31.004     191.765     -48.279
  O      -30.801     193.381     -50.263
  H      -31.573     191.298     -48.919
  H      -30.371     194.769     -46.047
  H      -30.244     193.029     -46.144
  H      -31.663     193.838     -46.765

 6  7  8  9  10  11  12  13  14  15  26  29  33  34 0
 6-311+G(2d,p)
 ****
 36  38  39  40  41 0
 6-311+G(2d,p)
 ****
 1  2  3  4  5  16  17  18  19  20  21  22  23  24  25 0
 3-21G
 ****
 27  28  30  31  32  35  37  42  43  44  45  46  47 0
 3-21G
 ****
 48  49 0
 3-21G
 ****


