%nproc=1
%NoSave
%Mem=1900MB
#P OB98/GEN NMR

erre ene a

0 1
  C      372.646    -213.189      52.356
  O      373.471    -212.928      53.500
  P      372.809    -212.209      54.772
  C      373.587    -214.050      56.412
  O      373.613    -212.658      56.084
  C      374.384    -214.322      57.707
  O      375.770    -213.946      57.499
  C      373.916    -213.510      58.921
  O      372.893    -214.064      59.754
  C      375.183    -213.490      59.767
  O      375.291    -214.705      60.531
  C      376.310    -213.432      58.742
  N      380.247    -210.291      59.693
  C      380.014    -211.583      60.023
  N      378.942    -212.339      59.727
  C      378.039    -211.659      59.010
  C      378.141    -210.332      58.582
  C      379.304    -209.636      58.966
  N      379.542    -208.318      58.638
  N      377.017    -209.960      57.875
  C      376.254    -211.039      57.868
  N      376.831    -212.093      58.526
  O      371.314    -212.294      54.867
  O      373.280    -210.682      54.596
  H      375.232    -215.438      59.896
  H      372.550    -210.092      54.874
  H      380.797    -212.063      60.601
  H      375.280    -211.097      57.405
  H      377.168    -214.070      59.006
  H      375.190    -212.668      60.501
  H      373.642    -212.486      58.635
  H      374.346    -215.391      57.932
  H      374.032    -214.621      55.585
  H      380.367    -207.880      58.979
  H      378.820    -207.792      58.143
  H      372.545    -214.351      56.486
  P      371.694    -213.150      60.323
  C      369.771    -213.727      58.648
  O      370.340    -213.913      59.919
  O      371.737    -211.708      59.906
  O      371.801    -213.393      61.894
  H      371.558    -214.293      62.183
  H      368.994    -214.485      58.497
  H      370.514    -213.842      57.853
  H      369.309    -212.738      58.579
  H      373.229    -213.669      51.598
  H      372.259    -212.266      51.978
  H      371.835    -213.827      52.639

 3  4  5  6  7  8  9  10  11  12  22  25  29  30  31  32 0
 6-311+G(2d,p)
 ****
 33  36  37 0
 6-311+G(2d,p)
 ****
 1  2  13  14  15  16  17  18  19  20  21  23  24  26 0
 3-21G
 ****
 27  28  34  35  38  39  40  41  42  43  44  45  46  47  48 0
 3-21G
 ****


