%nproc=1
%NoSave
%Mem=1900MB
#P OB98/GEN NMR

erre ene a

0 1
  C     -382.253     721.838    -221.965
  O     -382.217     721.436    -223.329
  P     -383.134     720.171    -223.767
  C     -384.654     721.593    -225.358
  O     -384.575     720.741    -224.221
  C     -386.050     722.237    -225.446
  O     -386.303     723.086    -224.303
  C     -386.206     723.163    -226.671
  O     -386.536     722.400    -227.835
  C     -387.421     724.002    -226.240
  O     -388.614     723.258    -226.428
  C     -387.144     724.194    -224.733
  N     -387.392     728.499    -221.962
  C     -388.255     727.463    -222.098
  N     -388.129     726.357    -222.863
  C     -386.960     726.385    -223.526
  C     -385.979     727.375    -223.505
  C     -386.237     728.470    -222.664
  N     -385.359     729.532    -222.542
  N     -384.930     727.047    -224.336
  C     -385.247     725.887    -224.854
  N     -386.471     725.443    -224.404
  O     -383.436     719.446    -222.376
  O     -382.477     719.247    -224.738
  H     -389.347     723.802    -226.099
  H     -383.503     718.496    -222.506
  H     -389.176     727.522    -221.497
  H     -384.616     725.316    -225.546
  H     -388.070     724.154    -224.138
  H     -387.497     724.926    -226.816
  H     -385.322     723.798    -226.803
  H     -386.805     721.437    -225.486
  H     -384.449     721.016    -226.262
  H     -385.596     730.264    -221.901
  H     -384.488     729.502    -223.040
  H     -383.859     722.352    -225.287
  P     -385.367     722.206    -228.904
  C     -385.578     719.606    -228.697
  O     -384.747     720.750    -228.622
  O     -384.217     723.224    -228.437
  O     -385.785     722.453    -230.326
  H     -383.707     723.536    -229.194
  H     -384.949     718.687    -228.771
  H     -386.219     719.664    -229.599
  H     -386.217     719.534    -227.806
  H     -381.605     722.677    -221.823
  H     -381.928     721.028    -221.346
  H     -383.253     722.111    -221.700

 3  4  5  6  7  8  9  10  11  12  22  25  29  30  31  32 0
 6-311+G(2d,p)
 ****
 33  36  37 0
 6-311+G(2d,p)
 ****
 1  2  13  14  15  16  17  18  19  20  21  23  24  26 0
 3-21G
 ****
 27  28  34  35  38  39  40  41  42  43  44  45  46  47  48 0
 3-21G
 ****


