%nproc=1
%NoSave
%Mem=1900MB
#P OB98/GEN NMR

erre ene a

0 1
  C      247.889    -296.952    -386.784
  O      248.178    -295.562    -386.590
  P      247.976    -294.614    -387.879
  C      249.835    -295.493    -389.454
  O      248.448    -295.449    -389.169
  C      250.090    -295.607    -390.971
  O      249.427    -294.520    -391.678
  C      251.574    -295.574    -391.350
  O      251.738    -296.446    -392.485
  C      251.763    -294.123    -391.772
  O      252.952    -293.887    -392.502
  C      250.449    -293.884    -392.499
  N      251.815    -289.691    -395.063
  C      252.327    -290.938    -395.045
  N      251.912    -292.010    -394.324
  C      250.837    -291.676    -393.574
  C      250.211    -290.447    -393.491
  C      250.735    -289.412    -394.276
  N      250.234    -288.131    -394.297
  N      249.149    -290.496    -392.588
  C      249.209    -291.721    -392.088
  N      250.147    -292.489    -392.712
  O      249.098    -293.498    -387.703
  O      246.604    -294.040    -387.972
  H      252.922    -293.009    -392.916
  H      248.724    -292.687    -387.335
  H      253.181    -291.104    -395.685
  H      248.586    -292.102    -391.292
  H      250.430    -294.382    -393.487
  H      251.820    -293.486    -390.862
  H      252.250    -295.894    -390.547
  H      249.640    -296.547    -391.314
  H      250.295    -296.351    -388.946
  H      250.702    -287.454    -394.886
  H      249.462    -287.880    -393.719
  H      250.316    -294.596    -389.045
  P      251.780    -298.031    -392.234
  C      253.971    -297.811    -390.926
  O      252.610    -298.209    -390.875
  O      252.867    -298.467    -393.328
  O      250.480    -298.746    -392.348
  H      253.668    -297.913    -393.272
  H      254.383    -297.912    -389.908
  H      254.050    -296.767    -391.238
  H      254.526    -298.464    -391.598
  H      248.056    -297.482    -385.870
  H      248.528    -297.346    -387.547
  H      246.867    -297.066    -387.080

 3  4  5  6  7  8  9  10  11  12  22  25  29  30  31  32 0
 6-311+G(2d,p)
 ****
 33  36  37 0
 6-311+G(2d,p)
 ****
 1  2  13  14  15  16  17  18  19  20  21  23  24  26 0
 3-21G
 ****
 27  28  34  35  38  39  40  41  42  43  44  45  46  47  48 0
 3-21G
 ****


