%nproc=1
%NoSave
%Mem=1900MB
#P OB98/GEN NMR

erre ene a

0 1
  C      270.289       1.867    -181.565
  O      270.305       0.481    -181.839
  H      271.307       2.230    -181.395
  H      269.870       2.393    -182.428
  H      269.669       2.073    -180.689
  P      270.922      -0.473    -180.704
  C      270.305      -0.865    -178.208
  O      270.219      -0.009    -179.337
  C      270.749      -0.056    -176.994
  O      272.051       0.527    -177.237
  C      269.828       1.112    -176.662
  O      268.693       0.715    -175.911
  C      270.759       1.981    -175.835
  O      270.889       1.434    -174.511
  C      272.082       1.836    -176.605
  N      274.173       6.389    -177.655
  C      274.211       5.612    -176.550
  N      273.647       4.403    -176.358
  C      272.994       4.003    -177.460
  C      272.873       4.682    -178.661
  C      273.499       5.939    -178.738
  N      273.435       6.748    -179.850
  N      272.108       3.959    -179.555
  C      271.789       2.856    -178.908
  N      272.274       2.849    -177.627
  O      272.422       0.058    -180.536
  O      270.846      -1.938    -180.972
  H      270.099       1.714    -174.010
  H      272.957      -0.587    -180.036
  H      274.767       6.018    -175.709
  H      271.205       2.042    -179.316
  H      272.958       1.868    -175.947
  H      270.395       3.006    -175.726
  H      269.534       1.661    -177.566
  H      270.843      -0.738    -176.140
  H      271.035      -1.654    -178.412
  H      273.786       7.688    -179.756
  H      272.816       6.489    -180.603
  H      269.326      -1.318    -178.020
  P      267.327       1.528    -176.144
  C      265.533       1.509    -178.022
  O      266.881       1.239    -177.659
  O      267.822       3.049    -176.189
  O      266.283       1.302    -175.103
  H      267.138       3.647    -175.832
  H      265.387       1.269    -179.054
  H      265.322       2.546    -177.864
  H      264.876       0.915    -177.421

 6  7  8  9  10  11  12  13  14  15  25  28  32  33  34  35 0
 6-311+G(2d,p)
 ****
 36  39  40 0
 6-311+G(2d,p)
 ****
 1  2  3  4  5  16  17  18  19  20  21  22  23  24 0
 3-21G
 ****
 26  27  29  30  31  37  38  41  42  43  44  45  46  47 0
 3-21G
 ****
 48 0
 3-21G
 ****


