%nproc=1
%NoSave
%Mem=1900MB
#P OB98/GEN NMR

erre ene a

0 1
  C      160.301    -478.329     274.320
  O      159.113    -477.704     274.819
  P      159.265    -476.265     275.508
  C      158.608    -474.918     273.379
  O      159.595    -475.188     274.366
  C      158.382    -473.415     273.247
  O      159.535    -472.762     272.675
  C      157.226    -473.056     272.328
  O      155.988    -473.240     272.984
  C      157.530    -471.600     271.984
  O      156.926    -470.694     272.917
  C      159.075    -471.538     272.075
  N      159.706    -471.314     270.784
  C      159.662    -469.994     270.302
  O      159.096    -469.119     270.952
  N      160.242    -469.723     269.089
  C      160.788    -470.682     268.397
  N      161.339    -470.349     267.205
  C      160.831    -472.084     268.857
  C      160.269    -472.329     270.048
  O      160.644    -476.386     276.309
  O      158.133    -475.904     276.413
  H      155.958    -470.827     272.826
  H      160.612    -475.851     277.119
  H      161.285    -472.851     268.252
  H      160.255    -473.332     270.466
  H      159.380    -470.725     272.743
  H      157.145    -471.339     270.989
  H      157.270    -473.670     271.414
  H      158.207    -473.002     274.249
  H      161.293    -469.379     266.921
  H      157.665    -475.418     273.636
  H      161.783    -471.017     266.589
  H      158.941    -475.354     272.420
  P      154.657    -473.218     272.103
  C      154.666    -475.791     272.067
  O      154.674    -474.614     271.291
  O      155.040    -472.168     270.949
  O      153.379    -472.867     272.785
  H      154.259    -471.993     270.387
  H      154.467    -476.643     271.414
  H      153.874    -475.742     272.829
  H      155.638    -475.932     272.547
  H      160.052    -479.277     273.890
  H      160.993    -478.473     275.124
  H      160.746    -477.705     273.574

 3  4  5  6  7  8  9  10  11  12  13  21  23  27  28  29  30  32 0
 6-311+G(2d,p)
 ****
 34  35 0
 6-311+G(2d,p)
 ****
 1  2  14  15  16  17  18  19  20  22  24  25  26 0
 3-21G
 ****
 31  33  36  37  38  39  40  41  42  43  44  45  46 0
 3-21G
 ****


