%nproc=1
%NoSave
%Mem=1900MB
#P OB98/GEN NMR

erre ene a

0 1
  C      285.743     104.335    -603.618
  O      284.634     104.762    -604.385
  P      283.471     103.693    -604.662
  C      282.214     105.100    -606.461
  O      282.968     103.931    -606.168
  C      282.226     105.372    -607.958
  O      283.524     105.838    -608.370
  C      281.942     104.156    -608.830
  O      280.556     103.835    -608.824
  C      282.474     104.641    -610.174
  O      281.523     105.513    -610.801
  C      283.722     105.434    -609.755
  N      287.439     103.836    -612.891
  C      286.329     104.575    -613.112
  N      285.379     104.945    -612.229
  C      285.659     104.464    -611.003
  C      286.735     103.678    -610.635
  C      287.662     103.365    -611.643
  N      288.790     102.605    -611.419
  N      286.677     103.363    -609.294
  C      285.590     103.958    -608.859
  N      284.944     104.651    -609.852
  O      282.254     104.232    -603.778
  O      283.829     102.273    -604.326
  H      281.916     105.813    -611.641
  H      281.724     103.491    -603.422
  H      286.191     104.933    -614.135
  H      285.228     103.926    -607.841
  H      283.864     106.343    -610.348
  H      282.683     103.821    -610.874
  H      282.525     103.290    -608.483
  H      281.499     106.169    -608.169
  H      282.655     105.956    -605.940
  H      289.311     102.304    -612.218
  H      288.876     102.141    -610.521
  H      281.190     104.963    -606.095
  P      280.132     102.392    -609.379
  C      277.911     103.451    -610.115
  O      279.056     102.722    -610.522
  O      279.220     101.835    -608.187
  O      281.269     101.515    -609.790
  H      278.560     102.492    -607.903
  H      277.287     103.649    -610.990
  H      278.207     104.400    -609.656
  H      277.326     102.860    -609.400
  H      286.436     105.143    -603.512
  H      286.223     103.516    -604.111
  H      285.409     104.023    -602.651

 3  4  5  6  7  8  9  10  11  12  22  25  29  30  31  32 0
 6-311+G(2d,p)
 ****
 33  36  37 0
 6-311+G(2d,p)
 ****
 1  2  13  14  15  16  17  18  19  20  21  23  24  26 0
 3-21G
 ****
 27  28  34  35  38  39  40  41  42  43  44  45  46  47  48 0
 3-21G
 ****


