%nproc=1
%NoSave
%Mem=1900MB
#P OB98/GEN NMR

erre ene a

0 1
  C      -74.572    -588.635     143.786
  O      -74.590    -587.688     144.831
  H      -75.552    -589.112     143.696
  H      -74.341    -588.121     142.848
  H      -73.805    -589.392     143.973
  P      -74.946    -588.235     146.299
  C      -72.876    -587.112     147.386
  O      -74.297    -587.211     147.356
  C      -72.465    -585.767     147.976
  O      -72.711    -584.729     146.987
  C      -73.204    -585.377     149.270
  O      -72.270    -585.158     150.330
  C      -73.877    -584.051     148.938
  O      -73.818    -583.106     150.008
  C      -73.109    -583.564     147.717
  N      -74.831    -578.790     147.178
  C      -73.757    -579.283     147.833
  N      -73.292    -580.550     147.852
  C      -74.041    -581.344     147.067
  C      -75.154    -580.980     146.322
  C      -75.556    -579.636     146.410
  N      -76.685    -579.146     145.781
  N      -75.665    -582.077     145.651
  C      -74.911    -583.088     146.015
  N      -73.931    -582.699     146.891
  O      -74.037    -589.548     146.434
  O      -76.392    -588.539     146.522
  H      -72.872    -582.982     150.222
  H      -74.576    -590.286     146.766
  H      -73.202    -578.569     148.433
  H      -75.055    -584.119     145.733
  H      -72.198    -583.010     147.994
  H      -74.930    -584.242     148.696
  H      -73.939    -586.130     149.570
  H      -71.379    -585.785     148.160
  H      -72.485    -587.187     146.362
  H      -76.963    -578.206     145.997
  H      -77.290    -579.797     145.299
  H      -72.476    -587.934     147.977
  P      -72.417    -586.100     151.630
  C      -70.386    -587.556     150.895
  O      -70.981    -586.759     151.906
  O      -73.284    -587.327     151.079
  O      -73.067    -585.428     152.794
  H      -73.786    -587.733     151.812
  H      -69.438    -587.917     151.237
  H      -70.246    -586.967     150.013
  H      -71.024    -588.386     150.673

 6  7  8  9  10  11  12  13  14  15  25  28  32  33  34  35 0
 6-311+G(2d,p)
 ****
 36  39  40 0
 6-311+G(2d,p)
 ****
 1  2  3  4  5  16  17  18  19  20  21  22  23  24 0
 3-21G
 ****
 26  27  29  30  31  37  38  41  42  43  44  45  46  47  48 0
 3-21G
 ****


