%nproc=1
%NoSave
%Mem=1900MB
#P OB98/GEN NMR

erre ene a

0 1
  C       -9.081     -23.450      56.404
  O       -9.575     -24.773      56.388
  H       -9.586     -22.899      57.202
  H       -9.282     -22.949      55.453
  H       -8.007     -23.448      56.608
  P       -9.073     -25.759      55.224
  C      -11.431     -25.638      54.157
  O      -10.040     -25.426      53.981
  C      -12.106     -25.856      52.805
  O      -11.943     -24.704      51.951
  C      -11.553     -27.023      51.992
  O      -11.948     -28.291      52.485
  C      -12.161     -26.709      50.635
  O      -13.554     -27.068      50.637
  C      -11.985     -25.172      50.574
  N      -10.779     -24.763      49.858
  C      -10.612     -25.277      48.566
  O      -11.452     -26.034      48.080
  N       -9.475     -24.952      47.865
  C       -8.576     -24.197      48.413
  N       -7.447     -23.944      47.694
  C       -8.718     -23.619      49.763
  C       -9.828     -23.942      50.425
  O       -8.968     -27.206      55.583
  O       -7.689     -25.122      54.734
  H      -13.928     -26.765      49.790
  H       -7.330     -25.704      54.020
  H       -7.934     -23.001      50.176
  H       -9.997     -23.571      51.429
  H      -12.854     -24.700      50.102
  H      -11.686     -27.253      49.812
  H      -10.463     -26.958      51.910
  H      -13.184     -25.968      52.988
  H       -7.365     -24.391      46.791
  H      -11.848     -24.765      54.667
  H       -6.600     -23.609      48.142
  H      -11.602     -26.525      54.774
  P      -10.804     -29.268      53.049
  C      -10.957     -30.872      51.002
  O      -10.154     -29.997      51.776
  O      -11.644     -30.426      53.761
  O       -9.806     -28.634      53.965
  H      -11.756     -30.245      54.715
  H      -10.376     -31.271      50.197
  H      -11.792     -30.333      50.606
  H      -11.309     -31.672      51.619

 6  7  8  9  10  11  12  13  14  15  16  26  30  31  32  33  35 0
 6-311+G(2d,p)
 ****
 37  38 0
 6-311+G(2d,p)
 ****
 1  2  3  4  5  17  18  19  20  21  22  23  24  25 0
 3-21G
 ****
 27  28  29  34  36  39  40  41  42  43  44  45  46 0
 3-21G
 ****


