%nproc=1
%NoSave
%Mem=1900MB
#P OB98/GEN NMR

erre ene a

0 1
  C     -823.763    1223.810    -193.757
  O     -823.896    1224.432    -195.023
  H     -822.730    1223.942    -193.412
  H     -823.984    1222.742    -193.838
  H     -824.435    1224.280    -193.019
  P     -825.381    1224.510    -195.626
  C     -824.770    1226.185    -197.558
  O     -825.240    1224.890    -197.183
  C     -824.572    1226.226    -199.081
  O     -825.811    1226.017    -199.773
  C     -824.105    1227.589    -199.593
  O     -822.755    1227.887    -199.248
  C     -824.340    1227.425    -201.081
  O     -823.284    1226.664    -201.685
  C     -825.671    1226.628    -201.081
  N     -826.817    1227.460    -201.426
  C     -826.737    1228.149    -202.631
  O     -825.735    1228.030    -203.350
  N     -827.768    1228.986    -203.003
  C     -828.793    1229.096    -202.234
  N     -829.786    1229.936    -202.632
  C     -828.960    1228.350    -200.973
  C     -827.935    1227.569    -200.610
  O     -825.958    1225.864    -194.977
  O     -826.230    1223.299    -195.392
  H     -822.494    1227.233    -201.657
  H     -825.385    1226.636    -195.126
  H     -829.851    1228.479    -200.352
  H     -827.950    1227.008    -199.701
  H     -825.625    1225.798    -201.828
  H     -824.390    1228.386    -201.606
  H     -824.782    1228.377    -199.231
  H     -823.878    1225.445    -199.359
  H     -829.650    1230.451    -203.502
  H     -823.826    1226.421    -197.051
  H     -830.629    1230.140    -202.110
  H     -825.530    1226.905    -197.255
  P     -822.312    1229.374    -198.901
  C     -820.381    1228.027    -197.877
  O     -820.795    1229.282    -198.399
  O     -823.225    1230.147    -197.973
  O     -822.144    1230.053    -200.341
  H     -821.490    1229.633    -200.918
  H     -819.356    1228.087    -197.576
  H     -820.488    1227.275    -198.630
  H     -820.987    1227.775    -197.032

 6  7  8  9  10  11  12  13  14  15  16  26  30  31  32  33  35 0
 6-311+G(2d,p)
 ****
 37  38 0
 6-311+G(2d,p)
 ****
 1  2  3  4  5  17  18  19  20  21  22  23  24  25 0
 3-21G
 ****
 27  28  29  34  36  39  40  41  42  43  44  45  46 0
 3-21G
 ****


