%nproc=1
%NoSave
%Mem=1900MB
#P OB98/GEN NMR

erre ene a

0 1
  C      369.177    -905.771    1012.813
  O      369.256    -905.967    1014.229
  P      369.848    -904.869    1015.228
  C      367.805    -903.319    1015.583
  O      368.677    -904.293    1016.157
  C      366.719    -902.887    1016.566
  O      365.791    -903.941    1016.798
  C      367.225    -902.473    1017.941
  O      367.824    -901.183    1017.892
  C      365.950    -902.553    1018.769
  O      365.151    -901.363    1018.616
  C      365.238    -903.776    1018.117
  N      365.375    -904.983    1018.921
  C      364.312    -905.285    1019.784
  O      363.345    -904.513    1019.873
  N      364.380    -906.447    1020.527
  C      365.439    -907.192    1020.482
  N      365.443    -908.323    1021.232
  C      366.624    -906.852    1019.663
  C      366.517    -905.742    1018.913
  O      370.671    -903.800    1014.554
  O      370.773    -905.697    1016.265
  H      364.239    -901.605    1018.844
  H      371.510    -905.138    1016.554
  H      367.512    -907.489    1019.665
  H      367.321    -905.449    1018.270
  H      364.164    -903.566    1017.972
  H      366.136    -902.689    1019.824
  H      367.952    -903.223    1018.301
  H      366.176    -902.044    1016.089
  H      364.625    -908.505    1021.786
  H      367.339    -903.772    1014.686
  H      366.219    -908.960    1021.268
  H      368.417    -902.461    1015.258
  P      369.332    -900.994    1018.428
  C      370.456    -899.780    1016.443
  O      369.897    -899.646    1017.758
  O      370.215    -902.184    1018.298
  O      369.134    -900.557    1019.966
  H      369.903    -900.887    1020.464
  H      370.442    -898.798    1015.973
  H      369.885    -900.488    1015.852
  H      371.499    -900.108    1016.547
  H      368.748    -906.638    1012.356
  H      370.159    -905.610    1012.420
  H      368.565    -904.918    1012.605

 3  4  5  6  7  8  9  10  11  12  13  23  27  28  29  30  32 0
 6-311+G(2d,p)
 ****
 34  35 0
 6-311+G(2d,p)
 ****
 1  2  14  15  16  17  18  19  20  21  22  24  25  26 0
 3-21G
 ****
 31  33  36  37  38  39  40  41  42  43  44  45  46 0
 3-21G
 ****


