%nproc=1
%NoSave
%Mem=1900MB
#P OB98/GEN NMR

erre ene a

0 1
  C       -3.778     117.891     139.035
  O       -3.720     117.985     137.628
  H       -2.807     117.550     139.402
  H       -4.538     117.167     139.338
  H       -3.994     118.867     139.478
  P       -5.031     118.466     136.838
  C       -4.284     120.863     137.479
  O       -5.345     119.921     137.449
  C       -4.720     122.169     136.822
  O       -4.963     121.992     135.410
  C       -6.021     122.755     137.362
  O       -5.896     123.340     138.646
  C       -6.311     123.783     136.284
  O       -5.447     124.920     136.454
  C       -5.948     122.986     135.010
  N       -7.108     122.342     134.398
  C       -7.738     123.040     133.362
  O       -7.327     124.143     133.005
  N       -8.849     122.488     132.770
  C       -9.304     121.349     133.193
  N      -10.411     120.851     132.575
  C       -8.684     120.590     134.295
  C       -7.602     121.135     134.844
  O       -6.180     117.511     136.832
  O       -4.503     118.840     135.374
  H       -4.538     124.613     136.284
  H       -5.280     119.135     134.840
  H       -9.119     119.660     134.629
  H       -7.093     120.640     135.664
  H       -5.469     123.635     134.266
  H       -7.338     124.153     136.305
  H       -6.821     122.006     137.351
  H       -3.889     122.879     136.919
  H      -10.815     121.394     131.824
  H       -3.427     120.429     136.956
  H      -10.878     120.011     132.889
  H       -4.000     121.075     138.514
  P       -7.254     123.580     139.472
  C       -6.916     121.322     140.739
  O       -7.758     122.133     139.936
  O       -8.294     124.013     138.340
  O       -7.156     124.582     140.579
  H       -8.393     124.985     138.314
  H       -7.410     120.397     140.953
  H       -6.699     121.831     141.655
  H       -6.004     121.127     140.215

 6  7  8  9  10  11  12  13  14  15  16  26  30  31  32  33  35 0
 6-311+G(2d,p)
 ****
 37  38 0
 6-311+G(2d,p)
 ****
 1  2  3  4  5  17  18  19  20  21  22  23  24  25 0
 3-21G
 ****
 27  28  29  34  36  39  40  41  42  43  44  45  46 0
 3-21G
 ****


