%nproc=1
%NoSave
%Mem=1900MB
#P OB98/GEN NMR

erre ene a

0 1
  C     1184.760    -695.588      -5.953
  O     1185.381    -696.247      -4.853
  H     1185.006    -694.518      -5.942
  H     1185.126    -696.020      -6.884
  H     1183.677    -695.724      -5.900
  P     1184.964    -695.750      -3.385
  C     1183.022    -697.486      -3.335
  O     1183.405    -696.118      -3.235
  C     1182.375    -697.907      -2.007
  O     1181.252    -697.052      -1.703
  C     1181.787    -699.324      -2.031
  O     1182.797    -700.334      -1.801
  C     1180.816    -699.261      -0.875
  O     1181.544    -699.348       0.383
  C     1180.225    -697.849      -1.047
  N     1176.025    -695.194      -2.181
  C     1177.018    -694.934      -1.323
  N     1178.107    -695.716      -1.100
  C     1178.075    -696.807      -1.815
  C     1177.103    -697.233      -2.720
  C     1176.032    -696.339      -2.903
  N     1174.977    -696.597      -3.759
  N     1177.423    -698.456      -3.267
  C     1178.562    -698.786      -2.723
  N     1179.001    -697.834      -1.829
  O     1184.944    -694.162      -3.506
  O     1185.835    -696.240      -2.270
  H     1181.962    -700.237       0.400
  H     1185.035    -693.747      -2.620
  H     1176.959    -693.997      -0.786
  H     1179.117    -699.684      -2.936
  H     1180.002    -697.366      -0.087
  H     1180.083    -700.068      -0.877
  H     1181.238    -699.523      -2.960
  H     1183.101    -697.814      -1.202
  H     1183.922    -698.094      -3.493
  H     1174.165    -696.002      -3.680
  H     1174.916    -697.523      -4.185
  H     1182.324    -697.615      -4.155
  P     1182.879    -701.530      -2.871
  C     1185.385    -701.062      -3.482
  O     1184.015    -701.122      -3.923
  O     1181.539    -701.383      -3.697
  O     1183.031    -702.890      -2.248
  H     1181.238    -702.257      -4.057
  H     1186.011    -700.777      -4.301
  H     1185.686    -702.023      -3.121
  H     1185.475    -700.342      -2.696

 6  7  8  9  10  11  12  13  14  15  25  28  32  33  34  35 0
 6-311+G(2d,p)
 ****
 36  39  40 0
 6-311+G(2d,p)
 ****
 1  2  3  4  5  16  17  18  19  20  21  22  23  24 0
 3-21G
 ****
 26  27  29  30  31  37  38  41  42  43  44  45  46  47 0
 3-21G
 ****
 48 0
 3-21G
 ****


