%nproc=1
%NoSave
%Mem=1900MB
#P OB98/GEN NMR

erre ene a

0 1
  C      105.899     339.774      87.168
  O      105.670     338.491      87.718
  H      105.045     340.413      87.407
  H      105.996     339.715      86.081
  H      106.799     340.217      87.599
  P      106.745     337.337      87.439
  C      107.515     336.022      85.348
  O      106.799     337.146      85.848
  C      107.085     335.706      83.917
  O      105.805     335.042      83.913
  C      106.919     336.934      83.031
  O      108.178     337.445      82.646
  C      106.076     336.355      81.905
  O      106.885     335.599      80.994
  C      105.124     335.422      82.693
  N      103.829     336.030      82.991
  C      103.019     336.324      81.889
  O      103.415     336.088      80.748
  N      101.791     336.899      82.115
  C      101.389     337.116      83.326
  N      100.162     337.683      83.480
  C      102.196     336.785      84.516
  C      103.397     336.262      84.278
  O      106.566     336.065      88.209
  O      108.150     338.033      87.767
  H      106.320     335.412      80.218
  H      108.414     337.851      88.689
  H      101.816     336.976      85.510
  H      104.055     335.991      85.099
  H      104.942     334.497      82.130
  H      105.574     337.128      81.324
  H      106.327     337.697      83.548
  H      107.819     335.009      83.491
  H       99.636     337.872      82.634
  H      107.283     335.176      86.006
  H       99.683     337.746      84.367
  H      108.594     336.203      85.386
  P      108.448     339.024      82.533
  C      108.511     340.565      80.477
  O      107.869     339.461      81.100
  O      109.850     339.449      82.802
  O      107.382     339.659      83.544
  H      107.690     339.554      84.480
  H      108.044     340.764      79.535
  H      109.544     340.335      80.321
  H      108.428     341.427      81.105

 6  7  8  9  10  11  12  13  14  15  16  26  30  31  32  33  35 0
 6-311+G(2d,p)
 ****
 37  38 0
 6-311+G(2d,p)
 ****
 1  2  3  4  5  17  18  19  20  21  22  23  24  25 0
 3-21G
 ****
 27  28  29  34  36  39  40  41  42  43  44  45  46 0
 3-21G
 ****


