%nproc=1
%NoSave
%Mem=1900MB
#P OB98/GEN NMR

erre ene a

0 1
  C     -102.587     -40.822      48.303
  O     -103.188     -42.096      48.365
  H     -103.267     -40.137      47.791
  H     -101.654     -40.875      47.736
  H     -102.390     -40.439      49.308
  P     -102.434     -43.229      49.216
  C     -103.521     -43.129      51.571
  O     -103.489     -43.765      50.303
  C     -104.504     -43.844      52.500
  O     -104.229     -43.445      53.868
  C     -105.971     -43.527      52.203
  O     -106.743     -44.717      52.390
  C     -106.342     -42.512      53.268
  O     -107.741     -42.496      53.550
  C     -105.456     -42.954      54.440
  N     -105.218     -41.857      55.374
  C     -106.191     -41.644      56.354
  O     -107.195     -42.358      56.395
  N     -106.038     -40.597      57.225
  C     -105.043     -39.779      57.076
  N     -104.961     -38.742      57.953
  C     -104.028     -39.924      56.014
  C     -104.171     -40.979      55.213
  O     -101.392     -42.397      50.098
  O     -101.775     -44.299      48.413
  H     -108.227     -42.470      52.698
  H     -100.581     -42.913      50.268
  H     -103.232     -39.202      55.915
  H     -103.480     -41.164      54.400
  H     -105.923     -43.785      54.985
  H     -106.056     -41.508      52.933
  H     -106.134     -43.143      51.193
  H     -104.317     -44.923      52.438
  H     -105.687     -38.666      58.656
  H     -103.847     -42.092      51.442
  H     -104.258     -38.021      57.904
  H     -102.516     -43.132      52.005
  P     -107.261     -45.455      51.065
  C     -105.643     -47.441      50.637
  O     -106.885     -47.009      51.178
  O     -106.279     -44.907      49.928
  O     -108.691     -45.171      50.742
  H     -106.757     -44.292      49.341
  H     -105.536     -48.495      50.788
  H     -104.843     -46.927      51.127
  H     -105.616     -47.226      49.589

 6  7  8  9  10  11  12  13  14  15  16  26  30  31  32  33  35 0
 6-311+G(2d,p)
 ****
 37  38 0
 6-311+G(2d,p)
 ****
 1  2  3  4  5  17  18  19  20  21  22  23  24  25 0
 3-21G
 ****
 27  28  29  34  36  39  40  41  42  43  44  45  46 0
 3-21G
 ****


