%nproc=1
%NoSave
%Mem=1900MB
#P OB98/GEN NMR

erre ene a

0 1
  C      322.740    -551.470    1151.370
  O      321.673    -550.904    1150.651
  H      322.693    -552.556    1151.291
  H      322.649    -551.215    1152.438
  H      323.696    -551.135    1150.997
  P      321.498    -549.316    1150.651
  C      320.264    -549.167    1148.380
  O      321.484    -548.886    1149.097
  C      320.485    -550.144    1147.253
  O      320.862    -551.420    1147.783
  C      319.225    -550.354    1146.366
  O      319.609    -550.284    1144.993
  C      318.818    -551.776    1146.715
  O      318.054    -552.380    1145.687
  C      320.175    -552.413    1147.027
  N      320.017    -553.673    1147.738
  C      320.051    -554.827    1146.951
  O      320.219    -554.765    1145.719
  N      319.886    -556.045    1147.560
  C      319.629    -556.080    1148.807
  N      319.449    -557.346    1149.370
  C      319.565    -554.928    1149.669
  C      319.756    -553.744    1149.089
  O      322.461    -548.563    1151.502
  O      319.968    -549.075    1151.086
  H      318.603    -552.432    1144.854
  H      319.874    -548.156    1151.441
  H      319.328    -554.996    1150.747
  H      319.732    -552.783    1149.656
  H      320.749    -552.601    1146.081
  H      318.187    -551.762    1147.619
  H      318.421    -549.630    1146.564
  H      321.320    -549.775    1146.639
  H      319.509    -558.133    1148.715
  H      319.859    -548.185    1148.011
  H      319.205    -557.517    1150.331
  H      319.551    -549.561    1149.101
  P      319.271    -548.889    1144.247
  C      321.546    -547.853    1143.509
  O      320.492    -547.881    1144.479
  O      318.061    -548.284    1145.107
  O      318.882    -549.079    1142.809
  H      317.236    -548.320    1144.583
  H      322.282    -547.134    1143.803
  H      321.145    -547.583    1142.554
  H      321.998    -548.821    1143.445

 6  7  8  9  10  11  12  13  14  15  16  26  30  31  32  33  35 0
 6-311+G(2d,p)
 ****
 37  38 0
 6-311+G(2d,p)
 ****
 1  2  3  4  5  17  18  19  20  21  22  23  24  25 0
 3-21G
 ****
 27  28  29  34  36  39  40  41  42  43  44  45  46 0
 3-21G
 ****


