%nproc=1
%NoSave
%Mem=1900MB
#P OB98/GEN NMR

erre ene a

0 1
  C       80.358      51.097     284.551
  O       81.207      52.223     284.630
  H       80.222      50.836     283.499
  H       79.380      51.324     284.983
  H       80.804      50.242     285.067
  P       81.565      52.812     286.079
  C       80.352      54.954     285.266
  O       80.493      53.992     286.299
  C       79.084      55.775     285.477
  O       77.904      54.945     285.407
  C       78.985      56.465     286.833
  O       79.840      57.588     286.969
  C       77.518      56.853     286.822
  O       77.323      57.989     285.961
  C       76.879      55.578     286.225
  N       76.400      54.652     287.252
  C       75.433      55.144     288.136
  O       75.025      56.302     288.042
  N       74.966      54.319     289.133
  C       75.445      53.118     289.253
  N       74.954      52.348     290.263
  C       76.480      52.568     288.356
  C       76.906      53.377     287.389
  O       82.994      53.195     286.296
  O       81.037      51.702     287.105
  H       77.867      58.713     286.319
  H       81.244      52.014     288.019
  H       76.866      51.572     288.517
  H       77.670      53.045     286.695
  H       76.044      55.833     285.560
  H       77.137      57.127     287.809
  H       79.150      55.749     287.648
  H       79.019      56.498     284.651
  H       74.246      52.753     290.863
  H       80.322      54.424     284.308
  H       75.323      51.431     290.478
  H       81.209      55.635     285.268
  P       79.873      58.309     288.406
  C       78.685      60.346     287.282
  O       78.737      59.435     288.368
  O       81.243      59.131     288.364
  O       79.790      57.386     289.582
  H       81.951      58.648     288.831
  H       77.868      61.023     287.423
  H       78.547      59.805     286.369
  H       79.601      60.897     287.235

 6  7  8  9  10  11  12  13  14  15  16  26  30  31  32  33  35 0
 6-311+G(2d,p)
 ****
 37  38 0
 6-311+G(2d,p)
 ****
 1  2  3  4  5  17  18  19  20  21  22  23  24  25 0
 3-21G
 ****
 27  28  29  34  36  39  40  41  42  43  44  45  46 0
 3-21G
 ****


