%nproc=1
%NoSave
%Mem=1900MB
#P OB98/GEN NMR

erre ene a

0 1
  C      139.823    -937.698     -23.717
  O      139.409    -938.362     -22.539
  H      140.590    -936.966     -23.455
  H      138.976    -937.174     -24.164
  H      140.243    -938.409     -24.433
  P      138.433    -939.621     -22.727
  C      136.442    -938.728     -21.318
  O      136.932    -939.059     -22.605
  C      134.940    -938.455     -21.376
  O      134.681    -937.271     -22.167
  C      134.120    -939.578     -22.006
  O      133.837    -940.612     -21.072
  C      132.868    -938.818     -22.394
  O      132.048    -938.603     -21.228
  C      133.443    -937.488     -22.895
  N      131.377    -937.380     -27.524
  C      130.767    -937.421     -26.278
  N      129.419    -937.450     -26.269
  N      131.423    -937.444     -25.155
  C      132.765    -937.423     -25.316
  C      133.487    -937.377     -26.488
  C      132.752    -937.346     -27.735
  O      133.235    -937.287     -28.861
  N      134.834    -937.367     -26.255
  C      134.935    -937.411     -24.938
  N      133.712    -937.460     -24.324
  O      138.619    -940.445     -21.362
  O      138.712    -940.476     -23.917
  H      131.868    -939.477     -20.848
  H      138.568    -941.402     -21.562
  H      130.824    -937.384     -28.369
  H      135.869    -937.419     -24.388
  H      132.777    -936.636     -22.680
  H      132.247    -939.358     -23.116
  H      128.856    -937.488     -27.105
  H      134.603    -939.967     -22.910
  H      128.956    -937.450     -25.378
  H      134.594    -938.254     -20.358
  H      136.959    -937.836     -20.953
  H      136.651    -939.562     -20.638
  P      133.106    -941.931     -21.631
  C      131.191    -941.947     -19.874
  O      131.560    -941.768     -21.241
  O      133.616    -943.069     -20.628
  O      133.398    -942.260     -23.056
  H      133.554    -943.937     -21.056
  H      130.135    -941.808     -19.768
  H      131.707    -941.231     -19.269
  H      131.454    -942.936     -19.560

 6  7  8  9  10  11  12  13  14  15  26  29  33  34 0
 6-311+G(2d,p)
 ****
 36  38  39  40  41 0
 6-311+G(2d,p)
 ****
 1  2  3  4  5  16  17  18  19  20  21  22  23  24  25 0
 3-21G
 ****
 27  28  30  31  32  35  37  42  43  44  45  46  47 0
 3-21G
 ****
 48  49 0
 3-21G
 ****


