%nproc=1
%NoSave
%Mem=1900MB
#P OB98/GEN NMR

erre ene a

0 1
  C      -13.280     -69.278     -78.935
  O      -14.296     -69.922     -78.190
  H      -12.498     -68.948     -78.248
  H      -13.690     -68.407     -79.452
  H      -12.845     -69.972     -79.659
  P      -15.536     -70.498     -79.026
  C      -17.946     -71.252     -78.377
  O      -16.776     -70.537     -78.009
  C      -18.715     -71.695     -77.127
  O      -17.895     -72.647     -76.386
  C      -19.045     -70.548     -76.159
  O      -20.251     -70.893     -75.459
  C      -17.865     -70.603     -75.202
  O      -18.121     -69.848     -74.040
  C      -17.734     -72.116     -75.052
  N      -14.788     -72.133     -70.876
  C      -16.043     -71.683     -71.088
  N      -16.766     -71.725     -72.224
  C      -16.074     -72.324     -73.208
  C      -14.791     -72.840     -73.139
  C      -14.133     -72.724     -71.902
  N      -12.851     -73.173     -71.685
  N      -14.414     -73.376     -74.357
  C      -15.454     -73.186     -75.144
  N      -16.475     -72.548     -74.496
  O      -15.160     -72.039     -79.229
  O      -15.810     -69.814     -80.323
  H      -18.816     -70.274     -73.494
  H      -14.729     -72.165     -80.095
  H      -16.530     -71.227     -70.230
  H      -15.516     -73.478     -76.186
  H      -18.534     -72.535     -74.430
  H      -16.969     -70.178     -75.663
  H      -19.176     -69.583     -76.657
  H      -19.621     -72.231     -77.435
  H      -17.647     -72.130     -78.960
  H      -18.586     -70.613     -78.991
  H      -12.445     -73.037     -70.774
  H      -12.345     -73.600     -72.447
  P      -21.662     -70.376     -76.028
  C      -24.184     -70.992     -75.701
  O      -22.840     -71.168     -75.280
  O      -21.695     -71.039     -77.488
  O      -21.822     -68.894     -76.116
  H      -22.235     -70.487     -78.085
  H      -24.829     -71.593     -75.094
  H      -24.279     -71.289     -76.725
  H      -24.457     -69.962     -75.601

 6  7  8  9  10  11  12  13  14  15  25  28  32  33  34  35 0
 6-311+G(2d,p)
 ****
 36  37  40 0
 6-311+G(2d,p)
 ****
 1  2  3  4  5  16  17  18  19  20  21  22  23  24 0
 3-21G
 ****
 26  27  29  30  31  38  39 41  42  43  44  45  46  47  48 0
 3-21G
 ****


