%nproc=1
%NoSave
%Mem=1900MB
#P OB98/GEN NMR

erre ene a

0 1
  C        5.287     277.606    1138.385
  O        5.364     278.918    1138.899
  H        5.515     276.898    1139.177
  H        6.012     277.487    1137.581
  H        4.281     277.420    1138.014
  P        5.172     280.125    1137.856
  C        4.615     281.576    1139.959
  O        5.364     281.434    1138.758
  C        5.454     282.251    1141.038
  O        5.974     283.514    1140.562
  C        4.685     282.590    1142.336
  O        4.495     281.467    1143.168
  C        5.639     283.592    1142.952
  O        6.784     282.905    1143.496
  C        6.045     284.433    1141.705
  N        5.174     285.597    1141.488
  C        5.239     286.612    1142.448
  O        5.984     286.512    1143.422
  N        4.411     287.703    1142.306
  C        3.615     287.793    1141.283
  N        2.824     288.902    1141.205
  C        3.533     286.757    1140.220
  C        4.327     285.701    1140.395
  O        3.591     280.116    1137.572
  O        6.027     280.077    1136.633
  H        7.508     283.535    1143.516
  H        3.339     280.927    1137.046
  H        2.842     286.873    1139.394
  H        4.320     284.901    1139.660
  H        7.091     284.767    1141.770
  H        5.206     284.178    1143.753
  H        3.735     283.096    1142.107
  H        6.307     281.618    1141.246
  H        2.879     289.565    1141.975
  H        4.319     280.564    1140.292
  H        2.078     288.990    1140.525
  H        3.710     282.171    1139.760
  P        3.014     281.258    1143.771
  C        4.210     279.316    1145.010
  O        3.151     280.276    1145.033
  O        2.257     280.354    1142.667
  O        2.251     282.530    1144.034
  H        1.303     280.600    1142.604
  H        4.183     278.733    1145.907
  H        5.150     279.823    1144.943
  H        4.090     278.673    1144.163

 6  7  8  9  10  11  12  13  14  15  16  26  30  31  32  33  35 0
 6-311+G(2d,p)
 ****
 37  38 0
 6-311+G(2d,p)
 ****
 1  2  3  4  5  17  18  19  20  21  22  23  24  25 0
 3-21G
 ****
 27  28  29  34  36  39  40  41  42  43  44  45  46 0
 3-21G
 ****


