%nproc=1
%NoSave
%Mem=1900MB
#P OB98/GEN NMR

erre ene a

0 1
  C      142.107      81.984    -118.000
  O      142.277      81.163    -119.139
  H      143.076      82.410    -117.728
  H      141.734      81.398    -117.155
  H      141.413      82.801    -118.220
  P      141.012      80.353    -119.694
  C      139.536      78.412    -118.825
  O      140.585      79.333    -118.534
  C      139.202      77.572    -117.592
  O      138.746      78.418    -116.518
  C      138.091      76.550    -117.818
  O      138.569      75.447    -118.563
  C      137.696      76.248    -116.381
  O      138.632      75.348    -115.769
  C      137.791      77.653    -115.738
  N      136.508      78.347    -115.666
  C      135.700      78.030    -114.565
  O      136.076      77.199    -113.741
  N      134.482      78.656    -114.449
  C      134.123      79.546    -115.319
  N      132.903      80.133    -115.144
  C      134.959      79.934    -116.472
  C      136.121      79.297    -116.589
  O      141.167      79.725    -121.044
  O      139.825      81.433    -119.681
  H      138.357      75.264    -114.835
  H      139.745      81.864    -120.551
  H      134.623      80.691    -117.169
  H      136.800      79.520    -117.406
  H      138.201      77.583    -114.720
  H      136.713      75.783    -116.311
  H      137.236      77.022    -118.320
  H      140.126      77.083    -117.257
  H      132.374      79.847    -114.327
  H      139.889      77.767    -119.635
  H      132.595      80.944    -115.658
  H      138.641      78.942    -119.171
  P      137.895      75.017    -119.950
  C      135.626      74.012    -120.632
  O      136.376      74.627    -119.596
  O      138.643      73.984    -120.726
  O      137.722      76.401    -120.734
  H      138.590      76.693    -121.114
  H      134.638      73.801    -120.280
  H      136.103      73.100    -120.924
  H      135.572      74.672    -121.473

 6  7  8  9  10  11  12  13  14  15  16  26  30  31  32  33  35 0
 6-311+G(2d,p)
 ****
 37  38 0
 6-311+G(2d,p)
 ****
 1  2  3  4  5  17  18  19  20  21  22  23  24  25 0
 3-21G
 ****
 27  28  29  34  36  39  40  41  42  43  44  45  46 0
 3-21G
 ****


