%nproc=1
%NoSave
%Mem=1900MB
#P OB98/GEN NMR

erre ene a

0 1
  C     -300.078      65.150      82.902
  O     -300.140      64.314      84.040
  H     -299.467      64.659      82.140
  H     -299.621      66.110      83.152
  H     -301.082      65.310      82.494
  P     -300.887      64.859      85.348
  C     -300.275      66.420      87.316
  O     -299.825      65.759      86.141
  C     -299.091      66.752      88.240
  O     -298.517      65.509      88.732
  C     -297.964      67.536      87.545
  O     -297.333      68.354      88.540
  C     -297.041      66.412      87.116
  O     -295.773      66.896      86.746
  C     -297.124      65.499      88.347
  N     -296.638      64.155      88.078
  C     -295.296      63.907      88.382
  O     -294.589      64.808      88.838
  N     -294.782      62.660      88.135
  C     -295.522      61.761      87.568
  N     -294.946      60.549      87.336
  C     -296.928      61.996      87.177
  C     -297.417      63.202      87.461
  O     -301.580      63.828      86.178
  O     -301.923      65.940      84.777
  H     -295.486      67.621      87.346
  H     -302.827      65.572      84.794
  H     -297.495      61.221      86.687
  H     -298.440      63.472      87.211
  H     -296.547      65.920      89.180
  H     -297.445      65.897      86.239
  H     -298.320      68.154      86.718
  H     -299.471      67.294      89.112
  H     -293.976      60.434      87.609
  H     -300.966      65.747      87.830
  H     -295.419      59.779      86.884
  H     -300.804      67.341      87.053
  P     -297.903      69.790      88.974
  C     -298.166      72.145      87.950
  O     -297.895      70.768      87.703
  O     -297.241      70.362      90.187
  O     -299.464      69.553      89.253
  H     -299.762      70.176      89.942
  H     -298.131      72.686      87.028
  H     -297.432      72.538      88.622
  H     -299.138      72.245      88.386

 6  7  8  9  10  11  12  13  14  15  16  26  30  31  32  33  35 0
 6-311+G(2d,p)
 ****
 37  38 0
 6-311+G(2d,p)
 ****
 1  2  3  4  5  17  18  19  20  21  22  23  24  25 0
 3-21G
 ****
 27  28  29  34  36  39  40  41  42  43  44  45  46 0
 3-21G
 ****


