%nproc=1
%NoSave
%Mem=1900MB
#P OB98/GEN NMR

erre ene a

0 1
  C      -16.573     -24.233      51.023
  O      -17.419     -25.362      51.049
  H      -15.686     -24.445      51.626
  H      -17.088     -23.368      51.448
  H      -16.260     -24.015      49.999
  P      -18.780     -25.278      50.200
  C      -18.689     -27.371      48.656
  O      -19.159     -26.808      49.873
  C      -17.290     -27.964      48.847
  O      -17.351     -29.014      49.842
  C      -16.708     -28.568      47.567
  O      -15.333     -28.198      47.454
  C      -16.848     -30.065      47.765
  O      -15.880     -30.803      47.020
  C      -16.746     -30.197      49.289
  N      -17.405     -31.408      49.775
  C      -16.577     -32.466      50.157
  O      -15.352     -32.359      50.065
  N      -17.150     -33.637      50.583
  C      -18.440     -33.764      50.569
  N      -18.947     -34.956      50.981
  C      -19.352     -32.691      50.128
  C      -18.774     -31.551      49.754
  O      -18.289     -24.702      48.792
  O      -19.877     -24.487      50.831
  H      -16.081     -30.688      46.065
  H      -19.050     -24.399      48.241
  H      -20.420     -32.849      50.120
  H      -19.366     -30.708      49.412
  H      -15.695     -30.219      49.606
  H      -17.842     -30.385      47.428
  H      -17.233     -28.245      46.669
  H      -16.636     -27.186      49.253
  H      -18.291     -35.672      51.267
  H      -18.654     -26.588      47.892
  H      -19.933     -35.176      50.984
  H      -19.379     -28.158      48.334
  P      -15.046     -26.730      46.869
  C      -12.606     -26.061      47.437
  O      -13.485     -26.656      46.495
  O      -15.180     -25.784      48.152
  O      -15.973     -26.333      45.769
  H      -16.056     -25.356      48.170
  H      -11.607     -26.082      47.055
  H      -12.648     -26.605      48.357
  H      -12.901     -25.047      47.609

 6  7  8  9  10  11  12  13  14  15  16  26  30  31  32  33  35 0
 6-311+G(2d,p)
 ****
 37  38 0
 6-311+G(2d,p)
 ****
 1  2  3  4  5  17  18  19  20  21  22  23  24  25 0
 3-21G
 ****
 27  28  29  34  36  39  40  41  42  43  44  45  46 0
 3-21G
 ****


