%nproc=1
%NoSave
%Mem=1900MB
#P OB98/GEN NMR

erre ene a

0 1
  C     -357.770     784.155     337.831
  O     -357.740     784.254     336.424
  H     -357.721     783.101     338.116
  H     -358.704     784.578     338.217
  H     -356.920     784.682     338.277
  P     -357.598     785.730     335.807
  C     -356.558     784.582     333.724
  O     -357.478     785.546     334.217
  C     -356.854     784.277     332.247
  O     -356.888     785.505     331.482
  C     -355.816     783.384     331.579
  O     -356.042     782.007     331.846
  C     -356.076     783.708     330.108
  O     -357.263     783.020     329.670
  C     -356.337     785.226     330.167
  N     -352.635     786.463     326.934
  C     -353.682     785.574     326.784
  N     -353.754     784.906     325.609
  N     -354.578     785.344     327.708
  C     -354.380     786.074     328.837
  C     -353.379     786.986     329.094
  C     -352.397     787.231     328.069
  O     -351.470     788.022     328.138
  N     -353.512     787.525     330.344
  C     -354.584     786.931     330.852
  N     -355.136     786.033     329.971
  O     -356.114     786.166     336.235
  O     -358.610     786.723     336.269
  H     -357.033     782.069     329.602
  H     -356.113     787.125     336.429
  H     -351.958     786.585     326.196
  H     -354.987     787.110     331.839
  H     -357.064     785.551     329.421
  H     -355.260     783.400     329.461
  H     -353.065     784.995     324.881
  H     -354.790     783.694     331.835
  H     -354.534     784.277     325.463
  H     -357.848     783.827     332.197
  H     -356.650     783.659     334.303
  H     -355.536     784.980     333.827
  P     -354.775     781.024     331.844
  C     -355.993     779.600     333.631
  O     -355.316     779.619     332.391
  O     -353.888     781.580     333.057
  O     -354.006     780.987     330.562
  H     -352.948     781.320     332.933
  H     -356.291     778.598     333.859
  H     -356.859     780.225     333.574
  H     -355.341     779.962     334.399

 6  7  8  9  10  11  12  13  14  15  26  29  33  34 0
 6-311+G(2d,p)
 ****
 36  38  39  40  41 0
 6-311+G(2d,p)
 ****
 1  2  3  4  5  16  17  18  19  20  21  22  23  24  25 0
 3-21G
 ****
 27  28  30  31  32  35  37  42  43  44  45  46  47 0
 3-21G
 ****
 48  49 0
 3-21G
 ****


