%nproc=1
%NoSave
%Mem=1900MB
#P OB98/GEN NMR

erre ene a

0 1
  C      -30.113    -165.756    -114.137
  O      -28.912    -165.045    -113.909
  H      -30.956    -165.125    -113.845
  H      -30.128    -166.669    -113.536
  H      -30.209    -166.007    -115.197
  P      -27.552    -165.791    -114.316
  C      -27.949    -165.952    -116.888
  O      -27.237    -165.339    -115.823
  C      -27.813    -165.117    -118.167
  O      -28.647    -163.927    -118.035
  C      -26.378    -164.631    -118.435
  O      -26.196    -164.511    -119.857
  C      -26.399    -163.244    -117.815
  O      -25.311    -162.481    -118.277
  C      -27.787    -162.789    -118.251
  N      -27.200    -157.773    -117.549
  C      -26.635    -158.633    -118.423
  N      -26.852    -159.958    -118.553
  C      -27.781    -160.373    -117.674
  C      -28.441    -159.615    -116.722
  C      -28.114    -158.251    -116.672
  N      -28.669    -157.373    -115.768
  N      -29.305    -160.408    -115.985
  C      -29.170    -161.617    -116.491
  N      -28.262    -161.642    -117.512
  O      -28.004    -167.320    -114.464
  O      -26.418    -165.632    -113.362
  H      -25.193    -162.583    -119.243
  H      -27.867    -167.790    -113.621
  H      -25.911    -158.201    -119.109
  H      -29.690    -162.503    -116.152
  H      -27.827    -162.533    -119.318
  H      -26.325    -163.299    -116.725
  H      -25.613    -165.291    -118.022
  H      -28.207    -165.688    -119.015
  H      -29.002    -166.032    -116.604
  H      -27.546    -166.954    -117.065
  H      -28.358    -156.415    -115.780
  H      -29.326    -157.720    -115.084
  P      -25.288    -165.593    -120.621
  C      -25.950    -168.111    -120.439
  O      -26.173    -166.857    -121.064
  O      -24.411    -166.198    -119.423
  O      -24.394    -165.043    -121.685
  H      -23.476    -166.254    -119.696
  H      -26.620    -168.838    -120.849
  H      -26.122    -168.021    -119.387
  H      -24.940    -168.420    -120.610

 6  7  8  9  10  11  12  13  14  15  25  28  32  33  34  35 0
 6-311+G(2d,p)
 ****
 36  37  40 0
 6-311+G(2d,p)
 ****
 1  2  3  4  5  16  17  18  19  20  21  22  23  24 0
 3-21G
 ****
 26  27  29  30  31  38  39 41  42  43  44  45  46  47  48 0
 3-21G
 ****


