%nproc=1
%NoSave
%Mem=1900MB
#P OB98/GEN NMR

erre ene a

0 1
  C     -384.193     186.898     359.180
  O     -384.219     187.083     360.600
  P     -382.805     186.942     361.350
  C     -383.450     184.985     362.929
  O     -382.652     185.411     361.834
  C     -382.597     184.387     364.051
  O     -383.427     183.967     365.177
  C     -381.767     183.171     363.619
  O     -380.535     183.214     364.354
  C     -382.600     182.002     364.132
  O     -381.832     180.807     364.221
  C     -383.079     182.584     365.462
  N     -384.452     179.117     368.863
  C     -383.190     179.523     368.468
  N     -382.142     178.961     369.118
  N     -382.977     180.405     367.534
  C     -384.126     180.914     367.002
  C     -385.424     180.603     367.325
  C     -385.649     179.594     368.345
  O     -386.743     179.195     368.738
  N     -386.321     181.357     366.587
  C     -385.543     182.060     365.785
  N     -384.215     181.877     366.035
  O     -383.031     187.752     362.713
  O     -381.649     187.483     360.567
  H     -381.085     180.986     364.832
  H     -382.627     188.642     362.644
  H     -384.558     178.418     369.589
  H     -385.895     182.748     365.028
  H     -382.295     182.574     366.225
  H     -383.448     181.818     363.458
  H     -382.235     178.313     369.885
  H     -381.574     183.103     362.541
  H     -381.215     179.269     368.871
  H     -381.923     185.174     364.425
  H     -384.171     184.225     362.596
  H     -384.050     185.833     363.290
  P     -379.212     183.646     363.557
  C     -378.117     181.294     363.353
  O     -378.746     182.380     362.691
  O     -378.099     183.722     364.720
  O     -379.309     184.942     362.824
  H     -377.509     184.487     364.549
  H     -378.286     180.379     362.783
  H     -378.515     181.160     364.369
  H     -377.036     181.487     363.422
  H     -385.182     187.013     358.787
  H     -383.832     185.916     358.955
  H     -383.546     187.626     358.737

 3  4  5  6  7  8  9  10  11  12  23  26  30  31 0
 6-311+G(2d,p)
 ****
 33  35  36  37  38 0
 6-311+G(2d,p)
 ****
 1  2  13  14  15  16  17  18  19  20  21  22  24  25 0
 3-21G
 ****
 27  28  29  32  34  39  40  41  42  43  44  45  46  47  48  49 0
 3-21G
 ****


