%nproc=1
%NoSave
%Mem=1900MB
#P OB98/GEN NMR

erre ene a

0 1
  C      865.980    -298.582     274.081
  O      866.766    -297.423     274.295
  P      866.169    -295.957     274.040
  C      865.152    -295.364     276.331
  O      866.270    -295.219     275.463
  C      865.570    -295.122     277.775
  O      866.273    -296.294     278.255
  C      866.533    -293.961     278.004
  O      865.907    -292.682     278.119
  C      867.135    -294.343     279.350
  O      866.218    -294.010     280.407
  C      867.272    -295.862     279.217
  N      871.509    -298.444     280.470
  C      870.331    -298.250     281.120
  N      869.262    -297.538     280.729
  C      869.461    -297.012     279.509
  C      870.595    -297.137     278.716
  C      871.651    -297.885     279.238
  N      872.836    -298.105     278.567
  N      870.427    -296.450     277.529
  C      869.213    -295.945     277.600
  N      868.591    -296.265     278.771
  O      864.825    -295.941     273.395
  O      867.288    -295.220     273.169
  H      866.010    -293.060     280.314
  H      866.913    -294.425     272.743
  H      870.253    -298.737     282.093
  H      868.759    -295.336     276.836
  H      867.056    -296.385     280.158
  H      868.071    -293.817     279.559
  H      867.328    -293.932     277.244
  H      864.667    -295.000     278.383
  H      864.778    -296.390     276.233
  H      873.486    -298.769     278.967
  H      872.881    -297.832     277.598
  H      864.362    -294.677     276.030
  P      866.607    -291.452     277.354
  C      865.442    -291.975     275.065
  O      865.616    -291.081     276.146
  O      868.020    -291.682     276.968
  O      866.404    -290.237     278.380
  H      865.481    -289.953     278.513
  H      864.616    -291.618     274.445
  H      865.200    -292.976     275.416
  H      866.350    -292.005     274.452
  H      866.560    -299.453     274.307
  H      865.667    -298.617     273.058
  H      865.120    -298.552     274.716

 3  4  5  6  7  8  9  10  11  12  22  25  29  30  31  32 0
 6-311+G(2d,p)
 ****
 33  36  37 0
 6-311+G(2d,p)
 ****
 1  2  13  14  15  16  17  18  19  20  21  23  24  26 0
 3-21G
 ****
 27  28  34  35  38  39  40  41  42  43  44  45  46  47  48 0
 3-21G
 ****


