%nproc=1
%NoSave
%Mem=1900MB
#P OB98/GEN NMR

erre ene a

0 1
  C      -10.945      53.268     102.471
  O      -10.941      51.880     102.183
  H      -11.664      53.761     101.810
  H       -9.958      53.704     102.293
  H      -11.244      53.439     103.508
  P       -9.852      50.959     102.913
  C       -8.447      50.754     100.751
  O       -8.487      51.182     102.108
  C       -7.000      50.540     100.309
  O       -6.254      51.766     100.439
  C       -6.263      49.510     101.154
  O       -6.655      48.196     100.808
  C       -4.825      49.867     100.843
  O       -4.409      49.322      99.582
  C       -4.893      51.411     100.780
  N       -4.480      52.045     102.029
  C       -3.109      52.033     102.302
  O       -2.322      51.511     101.512
  N       -2.672      52.594     103.476
  C       -3.520      53.134     104.295
  N       -3.019      53.668     105.441
  C       -4.971      53.184     104.039
  C       -5.379      52.624     102.899
  O      -10.216      49.520     103.125
  O       -9.584      51.718     104.300
  H       -4.438      48.351      99.690
  H      -10.200      51.402     104.987
  H       -5.642      53.647     104.746
  H       -6.431      52.620     102.631
  H       -4.255      51.793      99.974
  H       -4.143      49.490     101.604
  H       -6.438      49.701     102.218
  H       -7.001      50.256      99.248
  H       -2.020      53.602     105.581
  H       -8.915      51.540     100.150
  H       -3.571      54.195     106.103
  H       -9.021      49.829     100.621
  P       -6.797      47.063     101.931
  C       -5.033      45.567     100.777
  O       -5.378      46.305     101.952
  O       -7.992      46.180     101.803
  O       -6.766      47.901     103.298
  H       -7.621      48.381     103.447
  H       -4.074      45.111     100.911
  H       -4.999      46.229      99.937
  H       -5.768      44.809     100.604

 6  7  8  9  10  11  12  13  14  15  16  26  30  31  32  33  35 0
 6-311+G(2d,p)
 ****
 37  38 0
 6-311+G(2d,p)
 ****
 1  2  3  4  5  17  18  19  20  21  22  23  24  25 0
 3-21G
 ****
 27  28  29  34  36  39  40  41  42  43  44  45  46 0
 3-21G
 ****


