%nproc=1
%NoSave
%Mem=1900MB
#P OB98/GEN NMR

erre ene a

0 1
  C      -27.525     299.639    -401.226
  O      -28.533     298.716    -400.870
  P      -28.824     298.402    -399.327
  C      -28.335     296.169    -398.152
  O      -27.783     297.279    -398.852
  C      -28.576     295.001    -399.108
  O      -27.335     294.592    -399.723
  C      -29.132     293.752    -398.436
  O      -30.511     293.900    -398.157
  C      -28.803     292.684    -399.473
  O      -29.783     292.680    -400.523
  C      -27.451     293.180    -400.013
  N      -24.281     289.229    -400.645
  C      -25.407     289.592    -401.299
  N      -26.221     290.641    -401.042
  C      -25.781     291.335    -399.984
  C      -24.669     291.060    -399.195
  C      -23.885     289.958    -399.579
  N      -22.701     289.615    -398.960
  N      -24.565     291.983    -398.166
  C      -25.596     292.788    -398.327
  N      -26.319     292.469    -399.444
  O      -30.249     298.130    -398.986
  O      -28.303     299.716    -398.567
  H      -30.623     292.383    -400.133
  H      -29.046     300.128    -398.088
  H      -25.688     288.966    -402.141
  H      -25.848     293.618    -397.676
  H      -27.383     293.077    -401.102
  H      -28.767     291.678    -399.048
  H      -28.571     293.547    -397.512
  H      -29.251     295.344    -399.905
  H      -29.288     296.485    -397.706
  H      -22.146     288.904    -399.410
  H      -22.236     290.311    -398.379
  H      -27.655     295.871    -397.350
  P      -31.171     293.084    -396.945
  C      -32.570     291.043    -397.614
  O      -31.266     291.554    -397.407
  O      -32.429     293.668    -396.385
  O      -30.010     293.055    -395.840
  H      -30.409     293.061    -394.950
  H      -33.031     290.817    -396.645
  H      -32.498     290.124    -398.200
  H      -33.190     291.761    -398.150
  H      -27.475     299.719    -402.292
  H      -26.582     299.301    -400.849
  H      -27.754     300.596    -400.807

 3  4  5  6  7  8  9  10  11  12  22  25  29  30  31  32 0
 6-311+G(2d,p)
 ****
 33  36  37 0
 6-311+G(2d,p)
 ****
 1  2  13  14  15  16  17  18  19  20  21  23  24  26 0
 3-21G
 ****
 27  28  34  35  38  39  40  41  42  43  44  45  46  47  48 0
 3-21G
 ****


