%nproc=1
%NoSave
%Mem=1900MB
#P OB98/GEN NMR

erre ene a

0 1
  C      162.434     -75.304    -278.139
  O      162.389     -74.219    -279.042
  H      162.792     -74.968    -277.161
  H      161.425     -75.710    -278.021
  H      163.089     -76.090    -278.524
  P      163.771     -73.456    -279.326
  C      163.568     -73.797    -281.898
  O      163.632     -72.877    -280.818
  C      163.128     -73.063    -283.160
  O      161.703     -72.818    -283.119
  C      163.778     -71.694    -283.336
  O      165.074     -71.776    -283.904
  C      162.798     -71.035    -284.291
  O      163.005     -71.537    -285.624
  C      161.450     -71.526    -283.739
  N      158.051     -67.775    -282.960
  C      158.358     -68.502    -284.057
  N      159.260     -69.498    -284.176
  C      159.872     -69.727    -283.004
  C      159.663     -69.072    -281.802
  C      158.703     -68.045    -281.804
  N      158.413     -67.280    -280.697
  N      160.500     -69.574    -280.823
  C      161.186     -70.525    -281.422
  N      160.867     -70.633    -282.750
  O      164.833     -74.642    -279.499
  O      164.182     -72.447    -278.306
  H      162.245     -71.239    -286.160
  H      165.744     -74.292    -279.452
  H      157.808     -68.248    -284.958
  H      161.928     -71.151    -280.945
  H      160.701     -71.673    -284.524
  H      162.916     -69.949    -284.333
  H      163.792     -71.131    -282.394
  H      163.329     -73.708    -284.024
  H      162.845     -74.582    -281.656
  H      157.822     -66.475    -280.835
  H      158.992     -67.372    -279.876
  H      164.554     -74.249    -282.050
  P      165.997     -70.462    -283.838
  C      168.089     -71.642    -282.849
  O      167.515     -70.968    -283.963
  O      165.878     -70.017    -282.307
  O      165.596     -69.372    -284.777
  H      165.939     -69.048    -282.218
  H      169.097     -71.917    -283.079
  H      167.520     -72.522    -282.633
  H      168.082     -70.994    -281.998

 6  7  8  9  10  11  12  13  14  15  25  28  32  33  34  35 0
 6-311+G(2d,p)
 ****
 36  39  40 0
 6-311+G(2d,p)
 ****
 1  2  3  4  5  16  17  18  19  20  21  22  23  24 0
 3-21G
 ****
 26  27  29  30  31  37  38  41  42  43  44  45  46  47 0
 3-21G
 ****
 48 0
 3-21G
 ****


