%nproc=1
%NoSave
%Mem=1900MB
#P OB98/GEN NMR

erre ene a

0 1
  C     -123.477      38.111     245.974
  O     -123.702      39.296     246.711
  H     -122.888      37.424     246.588
  H     -122.914      38.333     245.064
  H     -124.423      37.626     245.718
  P     -124.674      40.413     246.097
  C     -122.537      41.852     245.936
  O     -123.748      41.452     245.304
  C     -121.453      42.075     244.884
  O     -121.191      40.847     244.169
  C     -121.828      43.100     243.822
  O     -121.717      44.418     244.319
  C     -120.838      42.749     242.722
  O     -119.550      43.325     242.986
  C     -120.786      41.207     242.828
  N     -121.621      40.541     241.828
  C     -121.052      40.353     240.573
  O     -119.922      40.746     240.275
  N     -121.841      39.721     239.648
  C     -123.148      39.369     239.820
  O     -123.841      38.886     238.929
  C     -123.705      39.613     241.158
  C     -122.927      40.177     242.085
  O     -125.638      41.028     247.056
  O     -125.437      39.642     244.917
  H     -119.281      43.003     243.868
  H     -126.349      39.440     245.199
  H     -121.452      39.589     238.730
  H     -124.734      39.334     241.337
  H     -123.321      40.370     243.077
  H     -119.755      40.854     242.706
  H     -121.158      43.111     241.746
  H     -122.844      42.908     243.457
  H     -120.528      42.369     245.400
  H     -122.220      41.060     246.623
  H     -122.719      42.768     246.509
  P     -122.998      45.376     244.335
  C     -121.636      46.961     242.839
  O     -122.903      46.345     243.063
  O     -123.267      46.063     245.632
  O     -124.208      44.400     243.953
  H     -124.856      44.383     244.682
  H     -121.690      47.581     241.969
  H     -120.893      46.205     242.693
  H     -121.375      47.558     243.687

 6  7  8  9  10  11  12  13  14  15  16  26  31  32  33  34  35 0
 6-311+G(2d,p)
 ****
 36  37 0
 6-311+G(2d,p)
 ****
 1  2  3  4  5  17  18  19  20  21  22  23  24  25 0
 3-21G
 ****
 27  28  29  30  38  39  40  41  42  43  44  45 0
 3-21G
 ****


