%nproc=1
%NoSave
%Mem=1900MB
#P OB98/GEN NMR

erre ene a

0 1
  C     -102.176      -2.625      79.671
  O     -102.018      -3.816      78.894
  P     -101.454      -3.746      77.393
  C      -99.320      -2.364      77.701
  O      -99.848      -3.662      77.444
  C      -97.808      -2.364      77.962
  O      -97.453      -3.353      78.960
  C      -96.939      -2.638      76.727
  O      -95.744      -1.872      76.913
  C      -96.658      -4.123      76.854
  O      -95.538      -4.537      76.081
  C      -96.499      -4.261      78.375
  N      -96.702      -5.632      78.832
  C      -95.626      -6.254      79.468
  O      -94.545      -5.670      79.573
  N      -95.779      -7.540      79.929
  C      -96.882      -8.179      79.683
  N      -96.969      -9.458      80.141
  C      -98.014      -7.592      78.940
  C      -97.860      -6.324      78.558
  O     -102.103      -2.714      76.530
  O     -101.725      -5.217      76.813
  H      -94.740      -4.094      76.436
  H     -101.873      -5.161      75.848
  H      -98.900      -8.173      78.736
  H      -98.634      -5.802      78.010
  H      -95.497      -3.936      78.690
  H      -97.530      -4.696      76.512
  H      -97.428      -2.377      75.787
  H      -97.550      -1.384      78.386
  H      -96.160      -9.834      80.624
  H      -99.834      -1.947      78.575
  H      -97.728     -10.080      79.908
  H      -99.551      -1.712      76.852
  P      -95.679      -0.306      76.585
  C      -96.177       1.220      78.580
  O      -95.201       0.429      77.927
  O      -96.921       0.260      75.974
  O      -94.420      -0.142      75.605
  H      -94.483       0.718      75.145
  H      -95.809       1.489      79.573
  H      -97.117       0.671      78.687
  H      -96.356       2.134      78.006
  H     -102.562      -2.878      80.637
  H     -102.857      -1.964      79.177
  H     -101.227      -2.142      79.781

 3  4  5  6  7  8  9  10  11  12  13  23  27  28  29  30  32 0
 6-311+G(2d,p)
 ****
 34  35 0
 6-311+G(2d,p)
 ****
 1  2  14  15  16  17  18  19  20  21  22  24  25  26 0
 3-21G
 ****
 31  33  36  37  38  39  40  41  42  43  44  45  46 0
 3-21G
 ****


