%nproc=1
%NoSave
%Mem=1900MB
#P OB98/GEN NMR

erre ene a

0 1
  C      -12.348      42.145      81.252
  O      -12.027      40.817      81.617
  H      -12.508      42.730      82.163
  H      -13.265      42.161      80.658
  H      -11.527      42.592      80.684
  P      -11.711      39.797      80.418
  C      -13.959      38.556      80.839
  O      -13.130      39.246      79.910
  C      -15.213      38.044      80.134
  O      -16.001      39.168      79.680
  C      -14.932      37.209      78.888
  O      -14.573      35.876      79.212
  C      -16.265      37.316      78.156
  O      -17.215      36.365      78.650
  C      -16.721      38.741      78.502
  N      -18.983      41.914      75.214
  C      -19.470      41.171      76.234
  N      -18.792      40.363      77.079
  C      -17.481      40.374      76.790
  C      -16.842      41.072      75.780
  C      -17.652      41.880      74.965
  N      -17.163      42.607      73.904
  N      -15.489      40.789      75.772
  C      -15.313      39.942      76.767
  N      -16.489      39.667      77.411
  O      -11.068      38.541      81.179
  O      -10.812      40.327      79.350
  H      -17.922      36.299      77.978
  H      -10.094      38.617      81.168
  H      -20.544      41.232      76.390
  H      -14.367      39.498      77.051
  H      -17.791      38.785      78.743
  H      -16.145      37.131      77.088
  H      -14.153      37.685      78.279
  H      -15.814      37.476      80.857
  H      -14.252      39.244      81.642
  H      -13.392      37.724      81.272
  H      -17.808      43.147      73.346
  H      -16.191      42.504      73.643
  P      -13.372      35.192      78.403
  C      -15.051      34.197      76.681
  O      -13.870      34.959      76.895
  O      -13.312      33.714      79.017
  O      -12.059      35.897      78.515
  H      -12.593      33.645      79.671
  H      -15.249      34.133      75.631
  H      -15.875      34.672      77.171
  H      -14.918      33.213      77.080

 6  7  8  9  10  11  12  13  14  15  25  28  32  33  34  35 0
 6-311+G(2d,p)
 ****
 36  37  40 0
 6-311+G(2d,p)
 ****
 1  2  3  4  5  16  17  18  19  20  21  22  23  24 0
 3-21G
 ****
 26  27  29  30  31  38  39 41  42  43  44  45  46  47  48 0
 3-21G
 ****


