%nproc=1
%NoSave
%Mem=1900MB
#P OB98/GEN NMR

erre ene a

0 1
  C      409.300    -239.277     -57.613
  O      408.261    -240.223     -57.487
  P      406.796    -239.867     -56.974
  C      405.431    -240.152     -54.760
  O      406.674    -240.308     -55.437
  C      405.582    -240.442     -53.259
  O      405.923    -241.843     -53.091
  C      406.727    -239.624     -52.639
  O      406.432    -239.084     -51.358
  C      407.914    -240.578     -52.737
  O      408.977    -240.258     -51.848
  C      407.243    -241.930     -52.517
  N      411.615    -244.497     -52.894
  C      411.257    -243.521     -51.987
  N      412.246    -243.041     -51.203
  N      410.042    -243.035     -51.891
  C      409.189    -243.524     -52.817
  C      409.428    -244.495     -53.764
  C      410.763    -245.047     -53.836
  O      411.155    -245.834     -54.699
  N      408.341    -244.693     -54.576
  C      407.455    -243.818     -54.145
  N      407.933    -243.064     -53.099
  O      405.665    -240.201     -57.890
  O      406.873    -238.258     -56.856
  H      409.198    -239.321     -51.975
  H      405.983    -237.911     -57.083
  H      412.584    -244.774     -52.975
  H      406.468    -243.671     -54.568
  H      407.135    -242.155     -51.456
  H      408.316    -240.499     -53.753
  H      413.217    -243.292     -51.356
  H      406.940    -238.738     -53.247
  H      412.073    -242.169     -50.715
  H      404.624    -240.265     -52.758
  H      404.742    -240.871     -55.215
  H      405.028    -239.150     -54.922
  P      406.615    -237.589     -50.834
  C      407.892    -236.655     -48.815
  O      407.938    -237.520     -49.930
  O      405.444    -237.377     -49.763
  O      406.537    -236.540     -51.895
  H      405.082    -236.474     -49.852
  H      408.912    -236.487     -48.456
  H      407.306    -237.114     -48.015
  H      407.451    -235.691     -49.088
  H      410.182    -239.762     -57.976
  H      409.501    -238.839     -56.658
  H      409.005    -238.513     -58.301

 3  4  5  6  7  8  9  10  11  12  23  26  30  31 0
 6-311+G(2d,p)
 ****
 33  35  36  37  38 0
 6-311+G(2d,p)
 ****
 1  2  13  14  15  16  17  18  19  20  21  22  24  25 0
 3-21G
 ****
 27  28  29  32  34  39  40  41  42  43  44  45  46  47  48  49 0
 3-21G
 ****


