%nproc=1
%NoSave
%Mem=1900MB
#P OB98/GEN NMR

erre ene a

0 1
  C     -554.133    -432.794     138.339
  O     -554.473    -434.159     138.406
  H     -554.349    -432.335     139.307
  H     -554.730    -432.287     137.578
  H     -553.066    -432.675     138.124
  P     -554.300    -435.082     137.103
  C     -556.126    -436.831     136.638
  O     -555.024    -436.473     137.467
  C     -557.053    -437.823     137.350
  O     -556.263    -438.915     137.887
  C     -557.835    -437.199     138.517
  O     -559.213    -437.578     138.429
  C     -557.209    -437.838     139.750
  O     -558.083    -437.858     140.870
  C     -556.801    -439.202     139.195
  N     -555.840    -439.882     140.052
  C     -556.135    -441.217     140.368
  O     -557.150    -441.748     139.920
  N     -555.306    -441.891     141.223
  C     -554.291    -441.275     141.755
  N     -553.523    -441.995     142.614
  C     -553.970    -439.868     141.474
  C     -554.771    -439.237     140.617
  O     -552.899    -435.202     136.609
  O     -555.292    -434.442     136.015
  H     -558.560    -437.001     140.912
  H     -554.994    -434.714     135.116
  H     -553.116    -439.393     141.947
  H     -554.606    -438.193     140.344
  H     -557.678    -439.851     139.066
  H     -556.312    -437.268     140.027
  H     -557.771    -436.111     138.543
  H     -557.731    -438.262     136.606
  H     -553.790    -442.952     142.784
  H     -555.732    -437.266     135.710
  H     -552.727    -441.617     143.109
  H     -556.687    -435.919     136.405
  P     -560.257    -436.396     138.129
  C     -562.239    -437.196     139.602
  O     -561.739    -436.991     138.290
  O     -560.103    -436.164     136.554
  O     -559.975    -435.148     138.897
  H     -559.666    -435.303     136.386
  H     -563.231    -437.594     139.548
  H     -562.257    -436.264     140.127
  H     -561.606    -437.885     140.121

 6  7  8  9  10  11  12  13  14  15  16  26  30  31  32  33  35 0
 6-311+G(2d,p)
 ****
 37  38 0
 6-311+G(2d,p)
 ****
 1  2  3  4  5  17  18  19  20  21  22  23  24  25 0
 3-21G
 ****
 27  28  29  34  36  39  40  41  42  43  44  45  46 0
 3-21G
 ****


