%nproc=1
%NoSave
%Mem=1900MB
#P OB98/GEN NMR

erre ene a

0 1
  C     -409.366     -82.672     352.905
  O     -408.059     -82.670     352.354
  P     -407.276     -84.042     352.081
  C     -408.939     -85.166     350.474
  O     -408.422     -85.127     351.800
  C     -408.553     -86.478     349.799
  O     -407.106     -86.571     349.780
  C     -409.021     -87.754     350.498
  O     -410.349     -88.146     350.180
  C     -408.046     -88.771     349.919
  O     -408.460     -89.144     348.592
  C     -406.739     -87.971     349.862
  N     -402.449     -90.139     351.611
  C     -402.993     -90.078     350.376
  N     -404.149     -89.499     349.995
  C     -404.743     -88.899     351.042
  C     -404.307     -88.870     352.352
  C     -403.099     -89.531     352.630
  N     -402.536     -89.570     353.888
  N     -405.199     -88.171     353.148
  C     -406.146     -87.775     352.319
  N     -405.909     -88.181     351.034
  O     -406.281     -84.406     353.127
  O     -406.614     -83.839     350.640
  H     -409.302     -89.624     348.681
  H     -405.908     -84.499     350.497
  H     -402.426     -90.568     349.586
  H     -407.012     -87.201     352.605
  H     -406.141     -88.207     348.977
  H     -407.992     -89.691     350.508
  H     -408.877     -87.692     351.584
  H     -408.903     -86.451     348.762
  H     -408.507     -84.332     349.915
  H     -401.608     -89.955     353.964
  H     -402.935     -88.980     354.605
  H     -410.023     -85.042     350.499
  P     -411.055     -89.209     351.160
  C     -412.492     -87.369     352.349
  O     -411.503     -88.372     352.452
  O     -410.249     -90.431     351.436
  O     -412.442     -89.509     350.417
  H     -413.063     -88.765     350.383
  H     -412.763     -87.038     353.355
  H     -413.386     -87.754     351.857
  H     -412.102     -86.516     351.789
  H     -409.711     -81.664     353.009
  H     -409.347     -83.143     353.866
  H     -410.026     -83.210     352.257

 3  4  5  6  7  8  9  10  11  12  22  25  29  30  31  32 0
 6-311+G(2d,p)
 ****
 33  36  37 0
 6-311+G(2d,p)
 ****
 1  2  13  14  15  16  17  18  19  20  21  23  24  26 0
 3-21G
 ****
 27  28  34  35  38  39  40  41  42  43  44  45  46  47  48 0
 3-21G
 ****


