%nproc=1
%NoSave
%Mem=1900MB
#P OB98/GEN NMR

erre ene a

0 1
  C      -52.962     559.196    -111.910
  O      -52.066     558.102    -111.915
  H      -53.956     558.840    -112.190
  H      -52.637     559.943    -112.641
  H      -53.018     559.648    -110.916
  P      -50.638     558.330    -111.220
  C      -49.417     557.832    -113.457
  O      -49.621     558.750    -112.389
  C      -47.993     557.281    -113.417
  O      -47.879     556.118    -114.269
  C      -46.925     558.266    -113.884
  O      -46.534     559.147    -112.839
  C      -45.797     557.310    -114.241
  O      -45.145     556.856    -113.030
  C      -46.562     556.145    -114.886
  N      -44.344     555.408    -119.396
  C      -43.843     555.241    -118.117
  N      -42.555     554.823    -118.028
  N      -44.521     555.464    -117.023
  C      -45.786     555.899    -117.266
  C      -46.394     556.109    -118.482
  C      -45.636     555.848    -119.680
  O      -46.037     555.973    -120.832
  N      -47.686     556.557    -118.322
  C      -47.845     556.635    -117.021
  N      -46.720     556.251    -116.331
  O      -50.188     556.838    -110.837
  O      -50.653     559.216    -110.019
  H      -44.686     556.023    -113.256
  H      -50.335     556.696    -109.880
  H      -43.768     555.230    -120.200
  H      -48.752     556.956    -116.525
  H      -46.087     555.174    -114.691
  H      -45.029     557.773    -114.863
  H      -41.967     554.652    -118.831
  H      -47.242     558.809    -114.781
  H      -42.166     554.686    -117.103
  H      -47.795     556.951    -112.388
  H      -49.580     558.347    -114.406
  H      -50.139     557.015    -113.360
  P      -45.759     560.495    -113.240
  C      -43.511     559.204    -113.356
  O      -44.432     560.059    -114.032
  O      -45.201     561.010    -111.830
  O      -46.590     561.536    -113.907
  H      -45.664     561.834    -111.569
  H      -42.680     558.997    -113.997
  H      -43.999     558.288    -113.097
  H      -43.163     559.687    -112.467

 6  7  8  9  10  11  12  13  14  15  26  29  33  34 0
 6-311+G(2d,p)
 ****
 36  38  39  40  41 0
 6-311+G(2d,p)
 ****
 1  2  3  4  5  16  17  18  19  20  21  22  23  24  25 0
 3-21G
 ****
 27  28  30  31  32  35  37  42  43  44  45  46  47 0
 3-21G
 ****
 48  49 0
 3-21G
 ****


