%nproc=1
%NoSave
%Mem=1900MB
#P OB98/GEN NMR

erre ene a

0 1
  C      513.053     328.271    -509.335
  O      512.166     328.451    -510.427
  H      513.832     329.034    -509.389
  H      513.517     327.283    -509.391
  H      512.509     328.380    -508.391
  P      510.934     327.433    -510.520
  C      509.463     329.310    -509.458
  O      509.854     327.939    -509.451
  C      507.944     329.433    -509.649
  O      507.281     328.910    -508.463
  C      507.459     330.875    -509.831
  O      506.263     330.843    -510.633
  C      507.102     331.266    -508.408
  O      506.330     332.447    -508.384
  C      506.442     329.969    -507.948
  N      504.195     331.871    -503.774
  C      504.052     332.169    -505.079
  N      504.677     331.608    -506.138
  C      505.507     330.631    -505.735
  C      505.750     330.208    -504.439
  C      505.045     330.883    -503.421
  N      505.194     330.588    -502.079
  N      506.675     329.184    -504.418
  C      506.986     328.990    -505.692
  N      506.303     329.849    -506.515
  O      511.511     326.090    -509.869
  O      510.395     327.203    -511.893
  H      506.874     333.222    -508.625
  H      511.846     325.499    -510.567
  H      503.343     332.962    -505.313
  H      507.691     328.251    -506.054
  H      505.449     329.846    -508.387
  H      508.005     331.472    -507.821
  H      508.197     331.533    -510.312
  H      507.639     328.795    -510.488
  H      509.983     329.814    -510.284
  H      509.757     329.774    -508.510
  H      504.660     331.127    -501.415
  H      505.840     329.859    -501.810
  P      506.157     329.783    -511.841
  C      504.443     328.074    -510.839
  O      505.778     328.347    -511.236
  O      507.697     329.587    -512.244
  O      505.356     330.225    -513.025
  H      507.759     329.344    -513.185
  H      504.380     327.074    -510.463
  H      503.792     328.180    -511.681
  H      504.151     328.762    -510.074

 6  7  8  9  10  11  12  13  14  15  25  28  32  33  34  35 0
 6-311+G(2d,p)
 ****
 36  37  40 0
 6-311+G(2d,p)
 ****
 1  2  3  4  5  16  17  18  19  20  21  22  23  24 0
 3-21G
 ****
 26  27  29  30  31  38  39 41  42  43  44  45  46  47  48 0
 3-21G
 ****


