%nproc=1
%NoSave
%Mem=1900MB
#P OB98/GEN NMR

erre ene a

0 1
  C     -158.657     296.207     426.916
  O     -159.119     295.750     428.172
  H     -158.159     295.380     426.405
  H     -157.941     297.022     427.045
  H     -159.497     296.542     426.300
  P     -159.832     296.793     429.157
  C     -158.544     296.791     431.393
  O     -159.623     296.237     430.649
  C     -158.216     295.897     432.598
  O     -157.518     294.730     432.099
  C     -157.316     296.599     433.624
  O     -157.845     296.562     434.950
  C     -155.953     295.960     433.390
  O     -155.095     295.969     434.512
  C     -156.311     294.562     432.867
  N     -155.263     293.948     432.055
  C     -154.379     293.085     432.699
  O     -154.426     292.786     433.891
  N     -153.401     292.547     431.906
  C     -153.220     292.777     430.574
  O     -152.329     292.259     429.914
  C     -154.173     293.716     429.955
  C     -155.137     294.249     430.714
  O     -161.241     297.146     428.814
  O     -158.878     298.078     429.116
  H     -154.240     295.579     434.234
  H     -159.278     298.763     428.546
  H     -152.763     291.908     432.357
  H     -154.056     293.931     428.902
  H     -155.854     294.943     430.287
  H     -156.527     293.888     433.699
  H     -155.444     296.517     432.593
  H     -157.246     297.671     433.412
  H     -159.157     295.556     433.047
  H     -158.843     297.788     431.733
  H     -157.661     296.885     430.751
  P     -157.681     297.729     436.026
  C     -157.045     296.224     438.080
  O     -157.974     297.116     437.476
  O     -158.354     299.016     435.692
  O     -156.090     297.996     436.042
  H     -155.970     298.952     436.227
  H     -157.411     295.923     439.039
  H     -156.102     296.716     438.197
  H     -156.923     295.362     437.458

 6  7  8  9  10  11  12  13  14  15  16  26  31  32  33  34  35 0
 6-311+G(2d,p)
 ****
 36  37 0
 6-311+G(2d,p)
 ****
 1  2  3  4  5  17  18  19  20  21  22  23  24  25 0
 3-21G
 ****
 27  28  29  30  38  39  40  41  42  43  44  45 0
 3-21G
 ****


