%nproc=1
%NoSave
%Mem=1900MB
#P OB98/GEN NMR

erre ene a

0 1
  C      347.215    -240.584     -71.823
  O      346.552    -241.384     -72.785
  P      347.146    -242.815     -73.183
  C      344.860    -243.906     -73.785
  O      346.127    -243.472     -74.236
  C      344.148    -244.738     -74.865
  O      343.918    -243.878     -76.006
  C      344.950    -245.922     -75.394
  O      344.053    -246.823     -76.047
  C      345.842    -245.259     -76.427
  O      346.360    -246.190     -77.371
  C      344.919    -244.159     -77.010
  N      345.672    -242.937     -77.345
  C      346.540    -243.011     -78.426
  O      346.641    -244.007     -79.142
  N      347.359    -241.931     -78.613
  C      347.412    -240.832     -77.803
  O      348.341    -240.029     -77.791
  C      346.314    -240.707     -76.826
  C      345.522    -241.764     -76.627
  O      346.928    -243.678     -71.850
  O      348.573    -242.807     -73.608
  H      346.858    -246.867     -76.860
  H      347.747    -243.684     -71.319
  H      348.087    -242.041     -79.307
  H      346.229    -239.788     -76.266
  H      344.738    -241.721     -75.879
  H      344.413    -244.505     -77.923
  H      346.695    -244.796     -75.914
  H      345.531    -246.453     -74.635
  H      343.176    -245.065     -74.484
  H      344.256    -243.039     -73.512
  H      344.967    -244.512     -72.880
  P      344.146    -248.379     -75.668
  C      341.921    -248.493     -74.391
  O      342.635    -248.900     -75.541
  O      345.045    -248.721     -74.527
  O      344.639    -249.056     -77.036
  H      345.007    -249.939     -76.851
  H      340.856    -248.446     -74.640
  H      342.246    -247.512     -74.041
  H      342.067    -249.230     -73.597
  H      346.676    -239.670     -71.687
  H      348.206    -240.367     -72.162
  H      347.263    -241.111     -70.893

 3  4  5  6  7  8  9  10  11  12  13  23  28  29  30  31  32 0
 6-311+G(2d,p)
 ****
 33  34 0
 6-311+G(2d,p)
 ****
 1  2  14  15  16  17  18  19  20  21  22  24  25  26  27 0
 3-21G
 ****
 35  36  37  38  39  40  41  42  43  44  45 0
 3-21G
 ****


