%nproc=1
%NoSave
%Mem=1900MB
#P OB98/GEN NMR

erre ene a

0 1
  C      714.500    -211.004    -896.540
  O      713.424    -211.605    -895.850
  H      714.093    -210.226    -897.210
  H      715.016    -211.745    -897.150
  H      715.200    -210.534    -895.840
  P      713.726    -212.448    -894.530
  C      711.267    -212.581    -893.750
  O      712.412    -213.305    -894.170
  C      709.985    -213.431    -893.820
  O      709.522    -213.530    -895.170
  C      710.237    -214.875    -893.340
  O      710.171    -215.069    -891.930
  C      709.110    -215.627    -894.050
  O      707.892    -215.568    -893.300
  C      708.964    -214.846    -895.370
  N      708.953    -218.767    -898.640
  C      708.116    -218.521    -897.560
  N      707.199    -219.486    -897.280
  N      708.183    -217.456    -896.810
  C      709.201    -216.618    -897.140
  C      710.096    -216.779    -898.180
  C      709.974    -217.940    -899.040
  O      710.697    -218.201    -900.000
  N      711.012    -215.728    -898.220
  C      710.708    -215.003    -897.150
  N      709.593    -215.491    -896.490
  O      713.733    -211.335    -893.370
  O      715.013    -213.219    -894.530
  H      708.019    -216.061    -892.460
  H      714.290    -211.627    -892.630
  H      708.810    -219.584    -899.200
  H      711.230    -214.107    -896.840
  H      707.912    -214.694    -895.620
  H      709.366    -216.681    -894.180
  H      707.177    -220.373    -897.760
  H      711.198    -215.246    -893.720
  H      706.757    -219.476    -896.360
  H      709.197    -212.947    -893.230
  H      711.168    -211.714    -894.400
  H      711.423    -212.203    -892.730
  P      711.492    -215.452    -891.120
  C      710.561    -214.024    -889.150
  O      711.168    -215.232    -889.560
  O      712.499    -214.248    -891.470
  O      712.088    -216.775    -891.450
  H      713.086    -214.499    -892.210
  H      710.416    -214.040    -888.090
  H      709.615    -213.917    -889.638
  H      711.193    -213.201    -889.411

 6  7  8  9  10  11  12  13  14  15  26  29  33  34 0
 6-311+G(2d,p)
 ****
 36  38  39  40  41 0
 6-311+G(2d,p)
 ****
 1  2  3  4  5  16  17  18  19  20  21  22  23  24  25 0
 3-21G
 ****
 27  28  30  31  32  35  37  42  43  44  45  46  47 0
 3-21G
 ****
 48  49 0
 3-21G
 ****


