%nproc=1
%NoSave
%Mem=1900MB
#P OB98/GEN NMR

erre ene a

0 1
  C      298.972     338.240    -653.643
  O      297.825     337.530    -654.056
  H      299.853     337.615    -653.807
  H      298.905     338.469    -652.573
  H      299.082     339.163    -654.218
  P      296.436     338.340    -654.060
  C      294.155     337.925    -655.297
  O      295.392     337.400    -654.845
  C      293.874     337.465    -656.732
  O      294.981     337.884    -657.580
  C      293.726     335.948    -656.878
  O      292.741     335.686    -657.887
  C      295.088     335.508    -657.388
  O      295.032     334.263    -658.075
  C      295.487     336.716    -658.252
  N      296.938     336.804    -658.456
  C      297.557     335.693    -659.036
  O      296.892     334.702    -659.344
  N      298.921     335.709    -659.217
  C      299.607     336.722    -658.789
  N      300.957     336.668    -658.976
  C      299.000     337.894    -658.134
  C      297.675     337.876    -658.004
  O      296.743     339.516    -655.100
  O      295.987     338.806    -652.713
  H      294.533     334.389    -658.913
  H      297.200     339.209    -655.904
  H      299.624     338.714    -657.783
  H      297.148     338.698    -657.537
  H      295.009     336.662    -659.235
  H      295.786     335.395    -656.542
  H      293.440     335.461    -655.948
  H      292.980     337.987    -657.100
  H      301.332     335.838    -659.417
  H      294.168     339.017    -655.262
  H      301.596     337.366    -658.638
  H      293.364     337.567    -654.628
  P      291.262     335.255    -657.445
  C      289.166     336.414    -658.428
  O      290.245     335.523    -658.663
  O      290.804     335.755    -656.119
  O      291.358     333.644    -657.433
  H      290.865     333.323    -656.649
  H      288.574     336.499    -659.315
  H      289.550     337.377    -658.162
  H      288.560     336.038    -657.630

 6  7  8  9  10  11  12  13  14  15  16  26  30  31  32  33  35 0
 6-311+G(2d,p)
 ****
 37  38 0
 6-311+G(2d,p)
 ****
 1  2  3  4  5  17  18  19  20  21  22  23  24  25 0
 3-21G
 ****
 27  28  29  34  36  39  40  41  42  43  44  45  46 0
 3-21G
 ****


