%nproc=1
%NoSave
%Mem=1900MB
#P OB98/GEN NMR

erre ene a

0 1
  C      327.191    -395.182     168.690
  O      326.301    -395.406     169.761
  P      325.774    -396.885     170.064
  C      327.681    -397.358     171.725
  O      326.266    -397.292     171.535
  C      328.004    -397.751     173.161
  O      327.823    -396.623     174.044
  C      327.116    -398.853     173.720
  O      327.504    -400.116     173.217
  C      327.333    -398.676     175.218
  O      328.546    -399.315     175.634
  C      327.457    -397.150     175.341
  N      324.999    -395.350     179.434
  C      326.138    -396.065     179.309
  N      326.711    -396.546     178.183
  C      325.965    -396.231     177.109
  C      324.762    -395.539     177.081
  C      324.286    -395.065     178.314
  N      323.158    -394.284     178.452
  N      324.285    -395.450     175.787
  C      325.173    -396.081     175.054
  N      326.235    -396.515     175.800
  O      326.054    -397.896     169.001
  O      324.195    -396.694     170.258
  H      328.713    -399.059     176.558
  H      323.716    -397.220     169.588
  H      326.663    -396.272     180.232
  H      325.106    -396.241     173.981
  H      328.253    -396.860     176.035
  H      326.518    -399.104     175.818
  H      326.067    -398.644     173.483
  H      329.061    -398.045     173.207
  H      328.105    -396.374     171.500
  H      322.987    -393.878     179.357
  H      322.796    -393.814     177.621
  H      328.102    -398.090     171.028
  P      326.388    -401.128     172.663
  C      327.075    -401.179     170.194
  O      327.034    -401.893     171.412
  O      325.039    -400.532     172.423
  O      326.327    -402.270     173.784
  H      325.421    -402.626     173.836
  H      326.088    -401.189     169.727
  H      327.790    -401.667     169.523
  H      327.393    -400.144     170.358
  H      327.433    -394.141     168.639
  H      326.730    -395.486     167.774
  H      328.085    -395.749     168.845

 3  4  5  6  7  8  9  10  11  12  22  25  29  30  31  32 0
 6-311+G(2d,p)
 ****
 33  36  37 0
 6-311+G(2d,p)
 ****
 1  2  13  14  15  16  17  18  19  20  21  23  24  26 0
 3-21G
 ****
 27  28  34  35  38  39  40  41  42  43  44  45  46  47  48 0
 3-21G
 ****


