%nproc=1
%NoSave
%Mem=1900MB
#P OB98/GEN NMR

erre ene a

0 1
  C       37.230    -211.693     270.028
  O       36.458    -212.141     271.155
  P       35.236    -211.234     271.676
  C       34.915    -209.274     273.381
  O       35.813    -210.112     272.669
  C       35.129    -209.433     274.890
  O       34.736    -210.759     275.318
  C       36.574    -209.280     275.337
  O       36.979    -207.923     275.373
  C       36.533    -209.937     276.715
  O       36.055    -209.016     277.710
  C       35.519    -211.077     276.492
  N       36.157    -212.386     276.373
  C       36.669    -212.933     277.539
  O       36.651    -212.353     278.624
  N       37.233    -214.177     277.418
  C       37.397    -214.874     276.253
  O       37.931    -215.973     276.206
  C       36.910    -214.203     275.039
  C       36.326    -213.008     275.153
  O       34.494    -212.227     272.696
  O       34.291    -210.753     270.623
  H       36.077    -209.492     278.565
  H       33.545    -212.000     272.739
  H       37.583    -214.610     278.260
  H       37.042    -214.713     274.092
  H       35.962    -212.501     274.261
  H       34.806    -211.113     277.327
  H       37.520    -210.282     277.046
  H       37.234    -209.868     274.684
  H       34.486    -208.706     275.405
  H       33.889    -209.551     273.134
  H       35.080    -208.235     273.077
  P       38.247    -207.524     274.467
  C       40.745    -206.998     275.026
  O       39.467    -207.370     275.494
  O       37.858    -206.024     274.049
  O       38.463    -208.457     273.322
  H       37.366    -205.565     274.751
  H       40.680    -206.318     274.174
  H       41.301    -207.899     274.738
  H       41.282    -206.493     275.836
  H       37.997    -212.408     269.814
  H       37.677    -210.747     270.255
  H       36.591    -211.590     269.176

 3  4  5  6  7  8  9  10  11  12  13  23  28  29  30  31  32 0
 6-311+G(2d,p)
 ****
 33  34 0
 6-311+G(2d,p)
 ****
 1  2  14  15  16  17  18  19  20  21  22  24  25  26 0
 3-21G
 ****
 27  35  36  37  38  39  40  41  42  43  44  45 0
 3-21G
 ****


