%nproc=1
%NoSave
%Mem=1900MB
#P OB98/GEN NMR

erre ene a

0 1
  C     -424.978     529.890      36.669
  O     -425.414     528.630      36.211
  H     -423.922     529.817      36.940
  H     -425.550     530.181      37.557
  H     -425.088     530.650      35.894
  P     -426.818     528.526      35.452
  C     -427.682     526.215      36.218
  O     -427.091     526.968      35.170
  C     -427.073     524.810      36.290
  O     -425.639     524.927      36.492
  C     -427.628     524.014      37.473
  O     -427.613     522.607      37.233
  C     -426.643     524.335      38.587
  O     -426.625     523.352      39.622
  C     -425.334     524.437      37.810
  N     -420.429     525.152      39.013
  C     -421.057     524.020      38.525
  N     -420.263     522.936      38.329
  N     -422.334     523.947      38.271
  C     -423.009     525.082      38.584
  C     -422.510     526.257      39.093
  C     -421.083     526.337      39.337
  O     -420.483     527.304      39.786
  N     -423.503     527.185      39.287
  C     -424.604     526.571      38.901
  N     -424.356     525.299      38.437
  O     -426.497     529.091      33.988
  O     -427.955     529.265      36.089
  H     -427.495     523.381      40.062
  H     -427.312     529.399      33.555
  H     -419.439     525.163      39.162
  H     -425.597     527.001      38.917
  H     -424.872     523.445      37.698
  H     -426.942     525.281      39.042
  H     -419.323     522.893      38.694
  H     -428.640     524.315      37.743
  H     -420.742     522.033      38.277
  H     -427.214     524.289      35.331
  H     -428.752     526.160      36.011
  H     -427.563     526.736      37.173
  P     -428.733     521.700      37.935
  C     -427.358     519.787      39.149
  O     -428.200     520.201      38.088
  O     -429.876     521.583      36.823
  O     -429.260     522.251      39.222
  H     -430.692     522.016      37.132
  H     -427.134     518.746      39.041
  H     -427.854     519.950      40.083
  H     -426.450     520.352      39.125

 6  7  8  9  10  11  12  13  14  15  26  29  33  34 0
 6-311+G(2d,p)
 ****
 36  38  39  40  41 0
 6-311+G(2d,p)
 ****
 1  2  3  4  5  16  17  18  19  20  21  22  23  24  25 0
 3-21G
 ****
 27  28  30  31  32  35  37  42  43  44  45  46  47 0
 3-21G
 ****
 48  49 0
 3-21G
 ****


