%nproc=1
%NoSave
%Mem=1900MB
#P OB98/GEN NMR

erre ene a

0 1
  C     -180.136     119.131      28.426
  O     -179.201     118.164      28.871
  P     -177.807     118.714      29.458
  C     -175.887     120.179      28.464
  O     -177.027     119.370      28.223
  C     -174.871     119.986      27.335
  O     -174.305     118.662      27.389
  C     -175.455     120.141      25.936
  O     -175.547     121.510      25.586
  C     -174.450     119.359      25.099
  O     -173.284     120.156      24.817
  C     -174.104     118.186      26.030
  N     -174.073     113.537      24.045
  C     -173.136     114.551      23.950
  N     -172.009     114.264      23.259
  N     -173.291     115.735      24.483
  C     -174.470     115.881      25.129
  C     -175.482     114.960      25.278
  C     -175.276     113.639      24.730
  O     -176.029     112.678      24.870
  N     -176.537     115.482      25.979
  C     -176.151     116.705      26.278
  N     -174.896     116.991      25.804
  O     -176.993     117.375      29.769
  O     -177.929     119.605      30.654
  H     -173.542     120.917      24.267
  H     -177.053     117.146      30.717
  H     -173.892     112.640      23.629
  H     -176.730     117.413      26.853
  H     -173.051     117.891      25.945
  H     -174.864     119.057      24.133
  H     -171.833     113.384      22.803
  H     -176.438     119.661      25.878
  H     -171.315     114.997      23.178
  H     -174.055     120.704      27.492
  H     -175.430     119.884      29.412
  H     -176.197     121.228      28.532
  P     -176.893     122.004      24.867
  C     -177.955     121.662      22.520
  O     -176.798     121.561      23.331
  O     -176.726     123.595      24.820
  O     -178.151     121.609      25.569
  H     -177.596     124.020      24.947
  H     -177.644     121.845      21.491
  H     -178.608     122.477      22.846
  H     -178.507     120.720      22.565
  H     -181.013     118.638      28.062
  H     -179.701     119.712      27.640
  H     -180.400     119.773      29.240

 3  4  5  6  7  8  9  10  11  12  23  26  30  31 0
 6-311+G(2d,p)
 ****
 33  35  36  37  38 0
 6-311+G(2d,p)
 ****
 1  2  13  14  15  16  17  18  19  20  21  22  24  25 0
 3-21G
 ****
 27  28  29  32  34  39  40  41  42  43  44  45  46  47  48  49 0
 3-21G
 ****


