%nproc=1
%NoSave
%Mem=1900MB
#P OB98/GEN NMR

erre ene a

0 1
  C       26.173     648.861    -106.151
  O       25.544     650.033    -105.674
  H       27.225     649.068    -106.381
  H       26.130     648.098    -105.367
  H       25.660     648.487    -107.040
  P       25.472     651.273    -106.690
  C       23.608     650.226    -108.158
  O       24.951     650.680    -108.085
  C       22.790     651.127    -109.079
  O       23.332     651.094    -110.417
  C       21.322     650.739    -109.220
  O       20.552     651.190    -108.119
  C       20.956     651.473    -110.500
  O       20.727     652.866    -110.207
  C       22.233     651.320    -111.341
  N       19.249     648.794    -114.647
  C       19.043     649.915    -113.917
  N       19.893     650.539    -113.075
  C       21.073     649.899    -113.035
  C       21.441     648.765    -113.739
  C       20.461     648.196    -114.579
  N       20.665     647.013    -115.269
  N       22.740     648.394    -113.433
  C       23.136     649.281    -112.541
  N       22.170     650.209    -112.275
  O       27.023     651.593    -106.967
  O       24.747     652.473    -106.179
  H       20.578     653.316    -111.063
  H       27.307     652.322    -106.386
  H       18.056     650.364    -114.020
  H       24.103     649.286    -112.062
  H       22.472     652.227    -111.911
  H       20.047     651.085    -110.978
  H       21.208     649.656    -109.383
  H       22.886     652.156    -108.710
  H       23.164     650.237    -107.157
  H       19.811     646.482    -115.430
  H       21.481     646.485    -114.971
  H       23.607     649.195    -108.533
  P       19.258     650.334    -107.712
  C       20.497     649.332    -105.672
  O       19.794     649.064    -106.875
  O       18.794     649.699    -109.114
  O       18.151     651.108    -107.078
  H       17.870     649.943    -109.293
  H       20.794     648.409    -105.220
  H       19.862     649.870    -105.000
  H       21.365     649.919    -105.889

 6  7  8  9  10  11  12  13  14  15  25  28  32  33  34  35 0
 6-311+G(2d,p)
 ****
 36  39  40 0
 6-311+G(2d,p)
 ****
 1  2  3  4  5  16  17  18  19  20  21  22  23  24 0
 3-21G
 ****
 26  27  29  30  31  37  38  41  42  43  44  45  46  47  48 0
 3-21G
 ****


