%nproc=1
%NoSave
%Mem=1900MB
#P OB98/GEN NMR

erre ene a

0 1
  C     -109.623      86.395      -3.139
  O     -109.818      86.978      -1.871
  H     -109.140      85.422      -3.003
  H     -108.972      87.018      -3.757
  H     -110.581      86.241      -3.641
  P     -110.336      88.497      -1.784
  C     -108.528      88.917      -0.011
  O     -109.918      88.992      -0.306
  C     -108.280      88.810       1.495
  O     -108.402      90.121       2.104
  C     -109.254      87.871       2.217
  O     -108.522      87.012       3.096
  C     -110.139      88.815       3.017
  O     -110.726      88.174       4.147
  C     -109.156      89.952       3.321
  N     -109.821      91.187       3.723
  C     -110.082      91.338       5.087
  O     -109.789      90.441       5.880
  N     -110.704      92.482       5.521
  C     -111.081      93.376       4.661
  N     -111.701      94.482       5.151
  C     -110.867      93.234       3.204
  C     -110.232      92.132       2.810
  O     -111.776      88.685      -2.125
  O     -109.341      89.316      -2.730
  H     -111.278      88.831       4.625
  H     -109.762      90.175      -2.987
  H     -111.209      94.001       2.526
  H     -110.023      91.948       1.761
  H     -108.458      89.660       4.117
  H     -110.949      89.185       2.377
  H     -109.839      87.252       1.542
  H     -107.239      88.501       1.650
  H     -111.825      94.539       6.155
  H     -108.037      89.807      -0.417
  H     -112.041      95.238       4.574
  H     -108.122      88.026      -0.505
  P     -108.407      85.473       2.645
  C     -108.397      84.095       4.841
  O     -107.623      84.677       3.801
  O     -107.358      85.525       1.437
  O     -109.707      84.873       2.226
  H     -107.827      85.489       0.583
  H     -107.749      83.601       5.535
  H     -109.079      83.385       4.423
  H     -108.946      84.861       5.349

 6  7  8  9  10  11  12  13  14  15  16  26  30  31  32  33  35 0
 6-311+G(2d,p)
 ****
 37  38 0
 6-311+G(2d,p)
 ****
 1  2  3  4  5  17  18  19  20  21  22  23  24  25 0
 3-21G
 ****
 27  28  29  34  36  39  40  41  42  43  44  45  46 0
 3-21G
 ****


