%nproc=1
%NoSave
%Mem=1900MB
#P OB98/GEN NMR

erre ene a

0 1
  C      289.968     764.394    1379.028
  O      289.495     764.455    1380.352
  H      289.998     763.346    1378.710
  H      290.981     764.805    1378.961
  H      289.299     764.941    1378.354
  P      289.415     765.885    1381.080
  C      287.144     765.173    1382.096
  O      287.865     766.167    1381.372
  C      285.778     765.714    1382.535
  O      286.001     766.996    1383.182
  C      284.823     765.931    1381.349
  O      283.560     765.285    1381.536
  C      284.847     767.440    1381.161
  O      283.675     767.964    1380.562
  C      285.135     767.970    1382.570
  N      285.754     769.287    1382.588
  C      284.960     770.369    1382.202
  O      283.774     770.301    1381.857
  N      285.578     771.597    1382.230
  C      286.882     771.836    1382.576
  O      287.375     772.954    1382.580
  C      287.669     770.652    1382.943
  C      287.081     769.445    1382.938
  O      290.135     766.995    1380.395
  O      290.012     765.608    1382.544
  H      282.915     767.658    1381.104
  H      290.915     765.983    1382.601
  H      285.010     772.384    1381.975
  H      288.707     770.794    1383.217
  H      287.633     768.557    1383.206
  H      284.211     768.016    1383.157
  H      285.681     767.700    1380.494
  H      285.215     765.447    1380.448
  H      285.356     765.026    1383.278
  H      287.746     764.895    1382.974
  H      287.007     764.292    1381.460
  P      282.780     764.451    1380.413
  C      282.071     762.648    1382.192
  O      282.633     762.942    1380.916
  O      283.249     764.653    1379.002
  O      281.274     765.018    1380.510
  H      280.896     764.970    1379.604
  H      282.060     761.589    1382.341
  H      281.071     763.025    1382.236
  H      282.660     763.110    1382.956

 6  7  8  9  10  11  12  13  14  15  16  26  31  32  33  34  35 0
 6-311+G(2d,p)
 ****
 36  37 0
 6-311+G(2d,p)
 ****
 1  2  3  4  5  17  18  19  20  21  22  23  24  25 0
 3-21G
 ****
 27  28  29  30  38  39  40  41  42  43  44  45 0
 3-21G
 ****


