%nproc=1
%NoSave
%Mem=1900MB
#P OB98/GEN NMR

erre ene a

0 1
  C     -109.144      49.044      16.474
  O     -110.374      49.708      16.676
  H     -109.318      48.172      15.838
  H     -108.740      48.702      17.431
  H     -108.423      49.699      15.979
  P     -110.372      51.124      17.425
  C     -109.479      52.034      19.670
  O     -109.694      50.890      18.857
  C     -109.664      51.691      21.153
  O     -111.095      51.624      21.438
  C     -109.058      50.336      21.569
  O     -108.670      50.454      22.944
  C     -110.260      49.423      21.409
  O     -110.058      48.157      21.984
  C     -111.342      50.324      22.019
  N     -112.716      49.905      21.777
  C     -113.393      49.274      22.817
  O     -112.915      49.049      23.928
  N     -114.679      48.889      22.541
  C     -115.342      49.081      21.365
  O     -116.505      48.743      21.187
  C     -114.573      49.746      20.303
  C     -113.318      50.127      20.554
  O     -111.679      51.844      17.455
  O     -109.257      51.964      16.639
  H     -109.689      52.585      16.021
  H     -110.931      47.731      22.131
  H     -115.186      48.434      23.284
  H     -115.065      49.905      19.351
  H     -112.730      50.628      19.793
  H     -111.181      50.421      23.098
  H     -110.454      49.243      20.349
  H     -108.190      50.052      20.968
  H     -109.257      52.509      21.758
  H     -110.202      52.803      19.376
  H     -108.466      52.413      19.496
  P     -107.142      50.442      23.437
  C     -105.352      48.638      23.936
  O     -106.580      48.945      23.283
  O     -106.940      51.022      24.799
  O     -106.335      51.272      22.331
  H     -105.535      51.660      22.734
  H     -105.096      47.615      23.752
  H     -105.459      48.795      24.989
  H     -104.578      49.273      23.558

 6  7  8  9  10  11  12  13  14  15  16  27  31  32  33  34  35 0
 6-311+G(2d,p)
 ****
 36  37 0
 6-311+G(2d,p)
 ****
 1  2  3  4  5  17  18  19  20  21  22  23  24  25 0
 3-21G
 ****
 26  28  29  30  38  39  40  41  42  43  44  45 0
 3-21G
 ****


