%nproc=1
%NoSave
%Mem=1900MB
#P OB98/GEN NMR

erre ene a

0 1
  C      129.574      27.638      22.552
  O      128.636      28.624      22.175
  H      130.537      27.875      22.091
  H      129.247      26.659      22.195
  H      129.699      27.617      23.638
  P      127.209      28.578      22.909
  C      125.648      26.508      23.033
  O      126.372      27.404      22.203
  C      124.723      25.638      22.188
  O      125.452      24.523      21.629
  C      123.552      25.037      22.958
  O      122.475      25.957      23.084
  C      123.181      23.881      22.044
  O      122.446      24.376      20.907
  C      124.560      23.374      21.604
  N      126.504      18.694      21.720
  C      126.037      19.435      20.651
  N      126.087      18.841      19.440
  N      125.560      20.648      20.758
  C      125.561      21.111      22.030
  C      125.999      20.474      23.170
  C      126.531      19.137      23.036
  O      126.979      18.446      23.946
  N      125.850      21.267      24.276
  C      125.306      22.375      23.812
  N      125.104      22.328      22.455
  O      126.482      29.910      22.391
  O      127.256      28.530      24.398
  H      122.889      25.195      20.620
  H      125.937      30.272      23.116
  H      126.851      17.761      21.584
  H      125.043      23.234      24.412
  H      124.554      22.983      20.581
  H      122.549      23.141      22.536
  H      126.396      17.892      19.295
  H      123.868      24.646      23.931
  H      125.781      19.376      18.637
  H      124.362      26.246      21.348
  H      125.050      27.083      23.748
  H      126.356      25.881      23.583
  P      121.508      25.798      24.358
  C      120.324      23.702      25.333
  O      120.776      24.383      24.168
  O      120.346      26.858      24.061
  O      122.158      26.030      25.678
  H      119.910      27.118      24.896
  H      119.860      22.780      25.050
  H      119.615      24.314      25.851
  H      121.157      23.500      25.974

 6  7  8  9  10  11  12  13  14  15  26  29  33  34 0
 6-311+G(2d,p)
 ****
 36  38  39  40  41 0
 6-311+G(2d,p)
 ****
 1  2  3  4  5  16  17  18  19  20  21  22  23  24  25 0
 3-21G
 ****
 27  28  30  31  32  35  37  42  43  44  45  46  47 0
 3-21G
 ****
 48  49 0
 3-21G
 ****


