%nproc=1
%NoSave
%Mem=1900MB
#P OB98/GEN NMR

erre ene a

0 1
  C      196.081    -891.360    -816.337
  O      195.707    -892.040    -815.153
  P      195.719    -891.310    -813.718
  C      193.419    -891.420    -812.509
  O      194.252    -890.700    -813.444
  C      192.362    -892.270    -813.277
  O      193.012    -893.320    -814.061
  C      191.339    -893.010    -812.396
  O      190.383    -892.080    -811.891
  C      190.803    -894.050    -813.355
  O      189.786    -893.480    -814.207
  C      192.052    -894.410    -814.175
  N      192.654    -895.680    -813.755
  C      192.572    -896.740    -814.654
  O      191.998    -896.590    -815.734
  N      193.155    -897.910    -814.317
  C      193.696    -898.090    -813.153
  N      194.275    -899.310    -812.866
  C      193.763    -897.020    -812.136
  C      193.189    -895.830    -812.488
  O      196.798    -890.320    -813.528
  O      195.847    -892.500    -812.644
  H      190.197    -892.770    -814.732
  H      196.292    -892.180    -811.859
  H      194.172    -897.180    -811.122
  H      193.169    -895.020    -811.812
  H      191.796    -894.490    -815.249
  H      190.363    -894.890    -812.816
  H      191.870    -893.480    -811.572
  H      191.855    -891.610    -813.981
  H      194.241    -900.000    -813.593
  H      192.884    -890.740    -811.849
  H      194.724    -899.510    -811.990
  H      194.056    -892.100    -811.920
  P      190.835    -890.890    -810.874
  C      189.953    -888.940    -812.238
  O      191.117    -889.600    -811.746
  O      191.939    -891.280    -809.905
  O      189.477    -890.560    -810.110
  H      189.700    -890.250    -809.193
  H      190.224    -887.860    -812.437
  H      189.124    -888.920    -811.483
  H      189.594    -889.390    -813.156
  H      196.002    -892.026    -817.171
  H      197.091    -891.018    -816.248
  H      195.433    -890.522    -816.487

 3  4  5  6  7  8  9  10  11  12  13  23  27  28  29  30  32 0
 6-311+G(2d,p)
 ****
 34  35 0
 6-311+G(2d,p)
 ****
 1  2  14  15  16  17  18  19  20  21  22  24  25  26 0
 3-21G
 ****
 31  33  36  37  38  39  40  41  42  43  44  45  46 0
 3-21G
 ****


