%nproc=1
%NoSave
%Mem=1900MB
#P OB98/GEN NMR

erre ene a

0 1
  C        9.810       5.402     289.165
  O       11.044       5.235     288.502
  H        9.086       5.820     288.460
  H        9.927       6.102     289.996
  H        9.426       4.448     289.535
  P       12.201       4.384     289.213
  C       13.419       6.591     289.766
  O       13.515       5.304     289.174
  C       14.292       7.588     289.002
  O       15.569       6.944     288.706
  C       13.677       8.044     287.663
  O       14.054       9.406     287.428
  C       14.382       7.132     286.681
  O       14.335       7.634     285.369
  C       15.781       7.072     287.289
  N       16.558       5.964     286.738
  C       17.720       6.292     286.052
  O       18.110       7.447     285.883
  N       18.400       5.247     285.490
  C       17.980       3.950     285.453
  O       18.589       3.066     284.867
  C       16.714       3.669     286.151
  C       16.073       4.672     286.757
  O       12.398       2.995     288.706
  O       11.817       4.417     290.767
  H       14.618       6.944     284.739
  H       12.246       3.678     291.239
  H       19.252       5.468     284.997
  H       16.344       2.654     286.127
  H       15.130       4.506     287.264
  H       16.323       8.010     287.117
  H       13.912       6.144     286.679
  H       12.589       7.947     287.635
  H       14.509       8.445     289.650
  H       13.760       6.517     290.805
  H       12.375       6.920     289.756
  P       13.093      10.630     287.822
  C       11.505      11.137     285.868
  O       12.721      11.494     286.517
  O       13.583      11.449     288.972
  O       11.703       9.930     288.206
  H       11.365      10.324     289.033
  H       11.355      11.770     285.018
  H       10.689      11.256     286.550
  H       11.557      10.117     285.548

 6  7  8  9  10  11  12  13  14  15  16  26  31  32  33  34  35 0
 6-311+G(2d,p)
 ****
 36  37 0
 6-311+G(2d,p)
 ****
 1  2  3  4  5  17  18  19  20  21  22  23  24  25 0
 3-21G
 ****
 27  28  29  30  38  39  40  41  42  43  44  45 0
 3-21G
 ****


