%nproc=1
%NoSave
%Mem=1900MB
#P OB98/GEN NMR

erre ene a

0 1
  C     -772.029     339.625     286.509
  O     -771.182     340.678     286.026
  P     -771.493     341.464     284.664
  C     -772.337     343.663     285.707
  O     -772.672     342.515     284.932
  C     -773.577     344.491     286.064
  O     -774.409     343.778     287.004
  C     -773.271     345.840     286.708
  O     -772.891     346.786     285.719
  C     -774.597     346.143     287.408
  O     -775.554     346.672     286.475
  C     -775.028     344.745     287.879
  N     -776.784     344.623     292.678
  C     -777.387     344.899     291.507
  N     -776.851     344.915     290.262
  C     -775.551     344.579     290.310
  C     -774.797     344.278     291.437
  C     -775.464     344.312     292.673
  N     -774.844     344.045     293.866
  N     -773.489     344.009     291.089
  C     -773.456     344.129     289.774
  N     -774.681     344.472     289.261
  O     -771.717     340.580     283.483
  O     -770.213     342.400     284.436
  H     -775.563     346.084     285.701
  H     -770.092     342.566     283.483
  H     -778.447     345.140     291.564
  H     -772.582     343.971     289.162
  H     -776.113     344.602     287.784
  H     -774.490     346.867     288.220
  H     -772.481     345.730     287.458
  H     -774.169     344.626     285.146
  H     -771.642     344.280     285.124
  H     -775.386     344.121     294.713
  H     -773.851     343.858     293.872
  H     -771.831     343.332     286.621
  P     -771.477     346.644     284.976
  C     -772.521     346.256     282.665
  O     -771.714     345.710     283.696
  O     -770.331     346.250     285.846
  O     -771.245     348.086     284.327
  H     -770.292     348.263     284.270
  H     -773.568     346.156     282.933
  H     -772.329     345.700     281.743
  H     -772.279     347.310     282.501
  H     -771.635     339.244     287.428
  H     -772.069     338.839     285.784
  H     -773.014     340.008     286.675

 3  4  5  6  7  8  9  10  11  12  22  25  29  30  31  32 0
 6-311+G(2d,p)
 ****
 33  36  37 0
 6-311+G(2d,p)
 ****
 1  2  13  14  15  16  17  18  19  20  21  23  24  26 0
 3-21G
 ****
 27  28  34  35  38  39  40  41  42  43  44  45  46  47  48 0
 3-21G
 ****


