%nproc=1
%NoSave
%Mem=1900MB
#P OB98/GEN NMR

erre ene a

0 1
  C        3.520     -79.189      19.830
  O        2.916     -78.743      18.632
  H        4.517     -78.752      19.934
  H        2.905     -78.868      20.674
  H        3.588     -80.281      19.837
  P        3.655     -79.142      17.265
  C        4.762     -76.815      16.965
  O        4.955     -78.206      17.171
  C        6.082     -76.070      17.139
  O        6.608     -76.293      18.463
  C        7.187     -76.500      16.181
  O        7.036     -75.905      14.901
  C        8.413     -75.963      16.903
  O        8.536     -74.548      16.666
  C        8.056     -76.220      18.375
  N       10.687     -78.320      22.226
  C       10.215     -77.071      22.032
  N        9.504     -76.592      20.991
  C        9.274     -77.561      20.091
  C        9.671     -78.885      20.158
  C       10.418     -79.261      21.287
  N       10.955     -80.529      21.440
  N        9.260     -79.577      19.035
  C        8.643     -78.680      18.296
  N        8.620     -77.450      18.895
  O        2.674     -78.548      16.145
  O        3.894     -80.602      17.074
  H        9.303     -74.242      17.185
  H        2.092     -79.260      15.820
  H       10.441     -76.357      22.818
  H        8.205     -78.872      17.327
  H        8.378     -75.402      19.028
  H        9.345     -76.428      16.572
  H        7.261     -77.591      16.114
  H        5.877     -74.996      17.041
  H        4.035     -76.436      17.691
  H       11.808     -80.544      21.992
  H       10.947     -81.092      20.598
  H        4.370     -76.661      15.956
  P        7.126     -76.864      13.618
  C        9.206     -75.595      12.750
  O        8.660     -76.847      13.142
  O        6.368     -76.020      12.489
  O        6.515     -78.212      13.786
  H        5.638     -76.550      12.115
  H       10.227     -75.727      12.459
  H        9.155     -74.911      13.571
  H        8.647     -75.205      11.925

 6  7  8  9  10  11  12  13  14  15  25  28  32  33  34  35 0
 6-311+G(2d,p)
 ****
 36  39  40 0
 6-311+G(2d,p)
 ****
 1  2  3  4  5  16  17  18  19  20  21  22  23  24 0
 3-21G
 ****
 26  27  29  30  31  37  38  41  42  43  44  45  46  47  48 0
 3-21G
 ****


