%nproc=1
%NoSave
%Mem=1900MB
#P OB98/GEN NMR

erre ene a

0 1
  C     -130.490     341.289     130.122
  O     -130.803     340.990     128.772
  P     -131.076     339.486     128.306
  C     -129.510     339.427     126.200
  O     -129.799     338.967     127.503
  C     -127.993     339.616     126.068
  O     -127.477     340.321     127.216
  C     -127.267     338.277     125.972
  O     -127.051     337.919     124.617
  C     -125.985     338.538     126.739
  O     -125.028     339.216     125.904
  C     -126.481     339.482     127.860
  N     -127.099     338.879     129.057
  C     -126.374     337.969     129.821
  O     -125.214     337.647     129.581
  N     -127.047     337.412     130.880
  C     -128.325     337.708     131.256
  O     -128.990     337.039     132.038
  C     -128.931     338.862     130.583
  C     -128.311     339.370     129.519
  O     -132.187     339.657     127.168
  O     -131.517     338.550     129.385
  H     -125.431     340.060     125.633
  H     -133.075     339.478     127.526
  H     -126.576     336.648     131.353
  H     -129.884     339.222     130.942
  H     -128.762     340.200     128.978
  H     -125.673     340.135     128.209
  H     -125.513     337.608     127.049
  H     -127.836     337.498     126.496
  H     -127.788     340.223     125.178
  H     -130.030     340.371     126.011
  H     -129.868     338.706     125.460
  P     -127.821     336.660     123.999
  C     -125.448     335.695     123.890
  O     -126.808     335.426     124.162
  O     -128.379     336.852     122.627
  O     -128.973     336.369     125.076
  H     -129.813     336.772     124.777
  H     -124.848     334.839     124.208
  H     -125.113     336.583     124.434
  H     -125.309     335.844     122.815
  H     -130.344     342.344     130.229
  H     -129.595     340.774     130.403
  H     -131.295     340.975     130.753

 3  4  5  6  7  8  9  10  11  12  13  23  28  29  30  31  32 0
 6-311+G(2d,p)
 ****
 33  34 0
 6-311+G(2d,p)
 ****
 1  2  14  15  16  17  18  19  20  21  22  24  25  26  27 0
 3-21G
 ****
 35  36  37  38  39  40  41  42  43  44  45 0
 3-21G
 ****


