%nproc=1
%NoSave
%Mem=1900MB
#P OB98/GEN NMR

erre ene a

0 1
  C      -99.985    -448.865     328.750
  O      -99.720    -450.113     329.355
  P      -99.938    -450.398     330.912
  C     -102.536    -450.413     330.978
  O     -101.339    -449.736     331.351
  C     -103.407    -450.807     332.183
  O     -102.720    -451.811     332.958
  C     -103.596    -449.597     333.108
  O     -104.606    -448.640     332.838
  C     -103.628    -450.182     334.518
  O     -104.960    -450.354     335.015
  C     -102.938    -451.540     334.355
  N     -100.613    -452.371     338.781
  C     -101.918    -452.649     338.424
  N     -102.744    -453.012     339.426
  N     -102.369    -452.548     337.197
  C     -101.443    -452.079     336.323
  C     -100.114    -451.789     336.558
  C      -99.626    -451.941     337.905
  O      -98.497    -451.631     338.288
  N      -99.503    -451.265     335.450
  C     -100.463    -451.202     334.553
  N     -101.668    -451.645     335.044
  O      -98.750    -450.214     331.804
  O     -100.295    -451.970     330.902
  H     -105.409    -449.492     334.967
  H      -99.927    -452.358     331.723
  H     -100.347    -452.395     339.760
  H     -100.346    -450.817     333.544
  H     -103.573    -452.343     334.736
  H     -103.119    -449.507     335.223
  H     -102.477    -452.953     340.396
  H     -102.666    -449.019     333.067
  H     -103.740    -453.051     339.230
  H     -104.347    -451.262     331.863
  H     -102.249    -451.297     330.402
  H     -103.119    -449.771     330.308
  P     -104.612    -447.113     333.300
  C     -102.917    -446.091     331.677
  O     -103.168    -446.493     333.012
  O     -104.666    -447.182     334.902
  O     -105.758    -446.304     332.778
  H     -105.022    -446.347     335.253
  H     -101.839    -445.977     331.541
  H     -103.402    -445.126     331.490
  H     -103.295    -446.838     330.973
  H      -99.763    -448.921     327.705
  H      -99.376    -448.112     329.204
  H     -101.017    -448.617     328.882

 3  4  5  6  7  8  9  10  11  12  23  26  30  31 0
 6-311+G(2d,p)
 ****
 33  35  36  37  38 0
 6-311+G(2d,p)
 ****
 1  2  13  14  15  16  17  18  19  20  21  22  24  25 0
 3-21G
 ****
 27  28  29  32  34  39  40  41  42  43  44  45  46  47  48  49 0
 3-21G
 ****


