%nproc=1
%NoSave
%Mem=1900MB
#P OB98/GEN NMR

erre ene a

0 1
  C      -12.728    -765.214    1038.719
  O      -12.589    -763.990    1039.411
  P      -13.642    -762.805    1039.179
  C      -15.704    -763.831    1040.317
  O      -15.089    -763.486    1039.077
  C      -16.928    -762.939    1040.561
  O      -16.520    -761.604    1040.954
  C      -17.797    -762.714    1039.325
  O      -18.470    -763.833    1038.803
  C      -18.629    -761.530    1039.763
  O      -19.716    -761.930    1040.583
  C      -17.603    -760.710    1040.598
  N      -17.126    -759.534    1039.882
  C      -18.113    -758.760    1039.288
  O      -19.306    -758.999    1039.350
  N      -17.665    -757.647    1038.587
  C      -16.354    -757.314    1038.391
  O      -16.018    -756.349    1037.718
  C      -15.362    -758.184    1039.034
  C      -15.773    -759.249    1039.740
  O      -13.310    -761.865    1038.068
  O      -13.705    -762.099    1040.615
  H      -20.132    -761.123    1040.948
  H      -13.997    -762.672    1041.349
  H      -18.348    -757.082    1038.134
  H      -14.317    -757.932    1038.899
  H      -15.072    -759.906    1040.205
  H      -18.058    -760.387    1041.547
  H      -19.050    -760.996    1038.914
  H      -17.137    -762.361    1038.503
  H      -17.504    -763.362    1041.385
  H      -14.978    -763.693    1041.130
  H      -15.990    -764.889    1040.295
  P      -18.666    -764.088    1037.228
  C      -16.594    -765.635    1037.138
  O      -17.249    -764.513    1036.604
  O      -19.480    -763.072    1036.481
  O      -19.467    -765.492    1037.218
  H      -20.045    -765.517    1036.457
  H      -15.619    -765.744    1036.627
  H      -17.181    -766.542    1036.970
  H      -16.405    -765.488    1038.208
  H      -11.937    -765.876    1039.003
  H      -12.683    -765.035    1037.665
  H      -13.670    -765.658    1038.965

 3  4  5  6  7  8  9  10  11  12  13  23  28  29  30  31  32 0
 6-311+G(2d,p)
 ****
 33  34 0
 6-311+G(2d,p)
 ****
 1  2  14  15  16  17  18  19  20  21  22  24  25  26  27 0
 3-21G
 ****
 35  36  37  38  39  40  41  42  43  44  45 0
 3-21G
 ****


