%nproc=1
%NoSave
%Mem=1900MB
#P OB98/GEN NMR

erre ene a

0 1
  C      411.685     100.146     277.080
  O      412.528     100.315     278.204
  P      414.006     100.916     278.024
  C      415.797      99.986     276.429
  O      414.977      99.722     277.567
  C      416.691      98.788     276.126
  O      415.914      97.686     275.596
  C      417.755      99.058     275.072
  O      418.799      99.870     275.575
  C      418.162      97.634     274.702
  O      419.086      97.100     275.664
  C      416.808      96.896     274.778
  N      416.247      96.638     273.464
  C      416.686      95.472     272.824
  O      417.564      94.778     273.336
  N      416.122      95.141     271.617
  C      415.297      95.951     271.043
  N      414.726      95.541     269.883
  C      414.932      97.268     271.607
  C      415.420      97.531     272.824
  O      414.509     101.726     279.172
  O      413.900     101.806     276.700
  H      414.276     102.694     276.887
  H      419.862      97.690     275.657
  H      414.284      97.939     271.067
  H      415.183      98.463     273.328
  H      416.934      95.945     275.308
  H      418.650      97.589     273.719
  H      417.296      99.547     274.206
  H      417.152      98.461     277.068
  H      414.986      94.627     269.527
  H      416.413     100.860     276.644
  H      413.848      95.928     269.528
  H      415.162     100.220     275.571
  P      420.105     100.027     274.656
  C      421.569      98.342     273.338
  O      420.733      98.569     274.457
  O      421.151     100.768     275.614
  O      419.883     100.802     273.395
  H      421.690     101.395     275.096
  H      422.173      97.453     273.529
  H      422.233      99.195     273.158
  H      420.948      98.163     272.454
  H      410.748      99.737     277.395
  H      412.149      99.480     276.383
  H      411.520     101.094     276.612

 3  4  5  6  7  8  9  10  11  12  13  24  27  28  29  30  32 0
 6-311+G(2d,p)
 ****
 34  35 0
 6-311+G(2d,p)
 ****
 1  2  14  15  16  17  18  19  20  21  22  23  25  26 0
 3-21G
 ****
 31  33  36  37  38  39  40  41  42  43  44  45  46 0
 3-21G
 ****


