%nproc=1
%NoSave
%Mem=1900MB
#P OB98/GEN NMR

erre ene a

0 1
  C     -414.256    -660.422    -193.785
  O     -415.590    -660.899    -193.687
  P     -416.548    -660.429    -192.505
  C     -418.716    -660.722    -193.849
  O     -417.980    -661.138    -192.710
  C     -420.213    -661.078    -193.714
  O     -420.366    -662.515    -193.856
  C     -420.821    -660.664    -192.371
  O     -422.160    -660.214    -192.645
  C     -420.854    -661.969    -191.594
  O     -421.814    -661.957    -190.534
  C     -421.117    -662.972    -192.706
  N     -420.762    -664.335    -192.340
  C     -421.682    -665.341    -192.644
  O     -422.798    -665.050    -193.095
  N     -421.322    -666.643    -192.427
  C     -420.227    -666.912    -191.799
  N     -419.869    -668.224    -191.675
  C     -419.339    -665.862    -191.241
  C     -419.647    -664.606    -191.572
  O     -416.618    -658.957    -192.289
  O     -415.969    -661.168    -191.196
  H     -415.803    -660.498    -190.497
  H     -421.919    -662.866    -190.201
  H     -418.511    -666.122    -190.599
  H     -419.052    -663.766    -191.235
  H     -422.181    -662.959    -192.991
  H     -419.861    -662.155    -191.148
  H     -420.268    -659.873    -191.872
  H     -420.754    -660.603    -194.528
  H     -420.471    -668.906    -192.104
  H     -418.301    -661.237    -194.721
  H     -418.903    -668.502    -191.471
  H     -418.590    -659.652    -194.009
  P     -422.870    -659.254    -191.573
  C     -424.175    -657.774    -193.283
  O     -424.244    -658.719    -192.221
  O     -421.932    -657.933    -191.666
  O     -422.916    -659.721    -190.154
  H     -422.003    -657.439    -190.821
  H     -425.196    -657.499    -193.537
  H     -423.701    -658.234    -194.146
  H     -423.627    -656.908    -192.972
  H     -413.785    -660.855    -194.642
  H     -413.714    -660.695    -192.904
  H     -414.264    -659.356    -193.882

 3  4  5  6  7  8  9  10  11  12  13  24  27  28  29  30  32 0
 6-311+G(2d,p)
 ****
 34  35 0
 6-311+G(2d,p)
 ****
 1  2  14  15  16  17  18  19  20  21  22  23  25  26 0
 3-21G
 ****
 31  33  36  37  38  39  40  41  42  43  44  45  46 0
 3-21G
 ****


