%nproc=1
%NoSave
%Mem=1900MB
#P OB98/GEN NMR

erre ene a

0 1
  C      -90.712    -215.990    -252.330
  O      -91.667    -215.094    -252.862
  H      -91.046    -216.316    -251.342
  H      -89.748    -215.483    -252.225
  H      -90.602    -216.868    -252.975
  P      -91.469    -214.655    -254.391
  C      -91.907    -212.231    -253.561
  O      -91.116    -213.086    -254.373
  C      -91.018    -211.241    -252.815
  O      -90.047    -211.947    -252.007
  C      -90.218    -210.311    -253.723
  O      -90.997    -209.198    -254.151
  C      -89.115    -209.872    -252.772
  O      -89.624    -208.881    -251.855
  C      -88.810    -211.179    -252.023
  N      -83.805    -211.667    -252.683
  C      -84.522    -210.701    -252.008
  N      -83.802    -209.712    -251.425
  N      -85.828    -210.690    -251.908
  C      -86.416    -211.732    -252.545
  C      -85.817    -212.755    -253.245
  C      -84.374    -212.755    -253.343
  O      -83.691    -213.600    -253.913
  N      -86.744    -213.634    -253.744
  C      -87.901    -213.135    -253.360
  N      -87.759    -211.978    -252.634
  O      -92.961    -214.689    -254.983
  O      -90.552    -215.514    -255.193
  H      -89.892    -208.111    -252.394
  H      -92.925    -214.992    -255.910
  H      -82.806    -211.620    -252.740
  H      -88.866    -213.572    -253.578
  H      -88.516    -211.006    -250.984
  H      -88.268    -209.424    -253.288
  H      -82.802    -209.632    -251.510
  H      -89.778    -210.851    -254.568
  H      -84.302    -209.012    -250.895
  H      -91.654    -210.663    -252.130
  H      -92.464    -212.838    -252.837
  H      -92.622    -211.694    -254.199
  P      -91.281    -209.055    -255.726
  C      -90.001    -206.803    -255.573
  O      -90.177    -208.026    -256.276
  O      -92.638    -208.204    -255.773
  O      -91.403    -210.346    -256.464
  H      -93.104    -208.357    -256.619
  H      -89.239    -206.224    -256.051
  H      -89.712    -207.010    -254.564
  H      -90.920    -206.255    -255.575

 6  7  8  9  10  11  12  13  14  15  26  29  33  34 0
 6-311+G(2d,p)
 ****
 36  38  39  40  41 0
 6-311+G(2d,p)
 ****
 1  2  3  4  5  16  17  18  19  20  21  22  23  24  25 0
 3-21G
 ****
 27  28  30  31  32  35  37  42  43  44  45  46  47 0
 3-21G
 ****
 48  49 0
 3-21G
 ****


