%nproc=1
%NoSave
%Mem=1900MB
#P OB98/GEN NMR

erre ene a

0 1
  C     -482.626     136.656    -587.466
  O     -481.326     137.020    -587.048
  H     -482.787     137.032    -588.481
  H     -483.367     137.110    -586.803
  H     -482.744     135.568    -587.471
  P     -480.759     136.294    -585.735
  C     -481.316     136.384    -583.194
  O     -481.560     136.926    -584.486
  C     -481.815     137.344    -582.110
  O     -480.993     138.532    -582.068
  C     -483.250     137.828    -582.317
  O     -484.191     136.881    -581.813
  C     -483.245     139.083    -581.473
  O     -483.342     138.740    -580.073
  C     -481.850     139.665    -581.773
  N     -482.686     144.443    -583.271
  C     -482.910     143.850    -582.046
  N     -483.444     144.635    -581.080
  N     -482.640     142.591    -581.781
  C     -482.139     141.921    -582.852
  C     -481.877     142.401    -584.117
  C     -482.163     143.795    -584.378
  O     -481.961     144.376    -585.452
  N     -481.363     141.419    -584.932
  C     -481.341     140.341    -584.163
  N     -481.801     140.596    -582.890
  O     -479.286     136.910    -585.590
  O     -480.722     134.802    -585.789
  H     -482.519     138.265    -579.836
  H     -478.637     136.253    -585.908
  H     -482.908     145.415    -583.427
  H     -480.992     139.372    -584.476
  H     -481.420     140.187    -580.910
  H     -484.084     139.752    -581.698
  H     -483.697     145.607    -581.221
  H     -483.450     138.087    -583.369
  H     -483.623     144.222    -580.182
  H     -481.714     136.837    -581.134
  H     -480.241     136.222    -583.067
  H     -481.841     135.418    -583.112
  P     -485.688     136.933    -582.400
  C     -487.530     138.755    -582.511
  O     -486.149     138.474    -582.396
  O     -486.549     136.282    -581.219
  O     -485.906     136.207    -583.693
  H     -486.898     135.409    -581.494
  H     -487.681     139.814    -582.493
  H     -488.055     138.306    -581.693
  H     -487.899     138.357    -583.433

 6  7  8  9  10  11  12  13  14  15  26  29  33  34 0
 6-311+G(2d,p)
 ****
 36  38  39  40  41 0
 6-311+G(2d,p)
 ****
 1  2  3  4  5  16  17  18  19  20  21  22  23  24  25 0
 3-21G
 ****
 27  28  30  31  32  35  37  42  43  44  45  46  47 0
 3-21G
 ****
 48  49 0
 3-21G
 ****


