%nproc=1
%NoSave
%Mem=1900MB
#P OB98/GEN NMR

erre ene a

0 1
  C      976.908     972.341     -91.141
  O      975.739     972.513     -91.914
  H      977.748     972.798     -91.671
  H      977.121     971.282     -90.995
  H      976.798     972.837     -90.168
  P      974.378     971.829     -91.403
  C      973.576     970.799     -93.640
  O      973.379     971.809     -92.660
  C      973.283     971.333     -95.045
  O      974.326     972.268     -95.421
  C      973.230     970.241     -96.128
  O      972.314     970.680     -97.140
  C      974.659     970.266     -96.644
  O      974.778     969.584     -97.863
  C      974.920     971.776     -96.641
  N      976.336     972.097     -96.741
  C      976.687     973.123     -97.620
  O      975.816     973.708     -98.268
  N      978.011     973.452     -97.760
  C      978.909     972.764     -97.131
  N      980.208     973.126     -97.328
  C      978.592     971.624     -96.235
  C      977.296     971.360     -96.087
  O      973.800     972.390     -90.151
  O      974.769     970.282     -91.232
  H      974.486     968.646     -97.767
  H      974.869     970.077     -90.280
  H      979.388     971.070     -95.752
  H      976.964     970.538     -95.445
  H      974.397     972.259     -97.483
  H      975.325     969.761     -95.941
  H      972.923     969.263     -95.740
  H      972.337     971.901     -95.009
  H      980.383     973.906     -97.964
  H      972.898     969.978     -93.395
  H      980.993     972.651     -96.914
  H      974.602     970.429     -93.597
  P      971.320     969.690     -97.911
  C      972.103     970.035    -100.342
  O      971.065     970.243     -99.396
  O      970.069     969.381     -97.157
  O      972.173     968.353     -98.157
  H      971.570     967.589     -98.151
  H      971.813     970.446    -101.286
  H      972.282     968.986    -100.450
  H      972.996     970.516    -100.003

 6  7  8  9  10  11  12  13  14  15  16  26  30  31  32  33  35 0
 6-311+G(2d,p)
 ****
 37  38 0
 6-311+G(2d,p)
 ****
 1  2  3  4  5  17  18  19  20  21  22  23  24  25 0
 3-21G
 ****
 27  28  29  34  36  39  40  41  42  43  44  45  46 0
 3-21G
 ****


