%nproc=1
%NoSave
%Mem=1900MB
#P OB98/GEN NMR

erre ene a

0 1
  C      148.537     -99.804     554.879
  O      148.057     -98.496     555.125
  P      149.073     -97.256     555.092
  C      151.108     -96.449     556.435
  O      150.032     -97.378     556.376
  C      151.900     -96.642     557.728
  O      152.466     -97.967     557.778
  C      153.078     -95.684     557.880
  O      152.638     -94.398     558.262
  C      153.908     -96.410     558.937
  O      153.396     -96.146     560.252
  C      153.681     -97.884     558.561
  N      157.328    -101.456     558.600
  C      156.471    -101.028     559.553
  N      155.550    -100.039     559.477
  C      155.586     -99.456     558.269
  C      156.426     -99.764     557.208
  C      157.318    -100.833     557.395
  N      158.148    -101.317     556.409
  N      156.177     -98.918     556.139
  C      155.218     -98.117     556.555
  N      154.784     -98.450     557.814
  O      148.435     -95.916     554.904
  O      150.053     -97.597     553.873
  H      153.607     -95.218     560.465
  H      149.986     -96.892     553.200
  H      156.524    -101.553     560.505
  H      154.791     -97.303     555.986
  H      153.529     -98.510     559.446
  H      154.957     -96.105     558.930
  H      153.649     -95.638     556.946
  H      151.204     -96.539     558.569
  H      150.692     -95.435     556.400
  H      158.637    -102.177     556.604
  H      157.942    -101.073     555.443
  H      151.762     -96.592     555.568
  P      153.646     -93.156     558.184
  C      156.045     -92.731     558.992
  O      154.856     -93.479     559.183
  O      153.022     -91.807     558.350
  O      154.324     -93.308     556.739
  H      154.539     -92.425     556.386
  H      156.595     -93.140     558.136
  H      156.663     -92.817     559.882
  H      155.819     -91.679     558.811
  H      147.726    -100.499     554.941
  H      149.279    -100.055     555.608
  H      148.970     -99.847     553.901

 3  4  5  6  7  8  9  10  11  12  22  25  29  30  31  32 0
 6-311+G(2d,p)
 ****
 33  36  37 0
 6-311+G(2d,p)
 ****
 1  2  13  14  15  16  17  18  19  20  21  23  24  26 0
 3-21G
 ****
 27  28  34  35  38  39  40  41  42  43  44  45  46  47  48 0
 3-21G
 ****


