%nproc=1
%NoSave
%Mem=1900MB
#P OB98/GEN NMR

erre ene a

0 1
  C      100.945    -546.718    1235.609
  O      101.352    -545.706    1234.710
  H      101.835    -547.269    1235.934
  H      100.261    -547.410    1235.123
  H      100.465    -546.272    1236.491
  P      100.230    -544.661    1234.243
  C      100.251    -542.085    1233.703
  O      100.986    -543.301    1233.838
  C      101.196    -540.894    1233.849
  O      101.653    -540.758    1235.212
  C      102.467    -540.997    1233.042
  O      102.253    -540.847    1231.651
  C      103.300    -539.884    1233.671
  O      102.903    -538.598    1233.159
  C      102.903    -540.026    1235.160
  N      103.959    -540.672    1235.963
  C      104.170    -540.128    1237.236
  O      103.512    -539.176    1237.635
  N      105.178    -540.645    1238.008
  C      105.881    -541.653    1237.568
  N      106.862    -542.135    1238.371
  C      105.659    -542.273    1236.244
  C      104.696    -541.739    1235.500
  O       99.509    -544.275    1235.622
  O       99.302    -545.160    1233.173
  H      103.375    -537.930    1233.709
  H      100.128    -543.978    1236.300
  H      106.269    -543.116    1235.914
  H      104.485    -542.131    1234.500
  H      102.713    -539.033    1235.613
  H      104.357    -539.998    1233.466
  H      102.971    -541.953    1233.256
  H      100.636    -539.978    1233.602
  H      106.999    -541.665    1239.267
  H       99.437    -542.037    1234.433
  H      107.503    -542.893    1238.130
  H       99.798    -542.085    1232.702
  P      103.480    -540.611    1230.650
  C      103.636    -540.835    1228.089
  O      103.127    -541.388    1229.306
  O      104.837    -540.924    1231.213
  O      103.314    -539.067    1230.218
  H      102.486    -538.867    1229.774
  H      103.331    -541.446    1227.265
  H      104.705    -540.802    1228.132
  H      103.253    -539.844    1227.960

 6  7  8  9  10  11  12  13  14  15  16  26  30  31  32  33  35 0
 6-311+G(2d,p)
 ****
 37  38 0
 6-311+G(2d,p)
 ****
 1  2  3  4  5  17  18  19  20  21  22  23  24  25 0
 3-21G
 ****
 27  28  29  34  36  39  40  41  42  43  44  45  46 0
 3-21G
 ****


