%nproc=1
%NoSave
%Mem=1900MB
#P OB98/GEN NMR

erre ene a

0 1
  C       38.917     622.135     254.903
  O       39.781     622.001     256.039
  P       40.723     620.710     256.206
  C       38.785     619.223     256.958
  O       39.839     619.387     256.007
  C       37.949     617.955     256.722
  O       38.677     616.756     257.087
  C       36.614     617.912     257.477
  O       35.704     617.212     256.623
  C       36.961     617.084     258.703
  O       35.802     616.547     259.348
  C       37.914     616.054     258.087
  N       38.778     615.445     259.101
  C       38.590     614.076     259.358
  O       37.677     613.461     258.801
  N       39.394     613.462     260.280
  C       40.248     614.166     260.954
  N       40.992     613.500     261.881
  C       40.436     615.614     260.783
  C       39.686     616.174     259.837
  O       41.575     620.714     257.432
  O       41.638     620.738     254.880
  H       35.352     615.948     258.714
  H       42.508     620.334     255.083
  H       41.139     616.173     261.379
  H       39.746     617.244     259.617
  H       37.356     615.255     257.573
  H       37.491     617.710     259.440
  H       36.218     618.902     257.739
  H       37.766     617.886     255.638
  H       40.827     612.503     261.994
  H       38.129     620.097     256.913
  H       41.610     613.962     262.536
  H       39.219     619.195     257.964
  P       34.723     617.968     255.605
  C       32.878     618.284     257.377
  O       33.781     618.921     256.497
  O       33.985     617.087     254.664
  O       35.673     618.997     254.815
  H       35.208     619.285     254.005
  H       32.461     619.011     258.064
  H       33.396     617.495     257.966
  H       32.083     617.814     256.804
  H       38.375     623.055     254.973
  H       38.228     621.317     254.880
  H       39.503     622.133     254.007

 3  4  5  6  7  8  9  10  11  12  13  23  27  28  29  30  32 0
 6-311+G(2d,p)
 ****
 34  35 0
 6-311+G(2d,p)
 ****
 1  2  14  15  16  17  18  19  20  21  22  24  25  26 0
 3-21G
 ****
 31  33  36  37  38  39  40  41  42  43  44  45  46 0
 3-21G
 ****


