%nproc=1
%NoSave
%Mem=1900MB
#P OB98/GEN NMR

erre ene a

0 1
  C      160.277    -507.696     522.954
  O      160.348    -508.070     521.589
  H      161.295    -507.581     523.336
  H      159.774    -508.474     523.534
  H      159.751    -506.744     523.067
  P      158.992    -508.158     520.740
  C      160.120    -507.693     518.467
  O      159.393    -508.631     519.260
  C      160.687    -508.402     517.233
  O      161.738    -509.317     517.620
  C      159.665    -509.246     516.477
  O      158.800    -508.427     515.707
  C      160.577    -510.151     515.666
  O      161.063    -509.474     514.492
  C      161.727    -510.415     516.669
  N      161.605    -511.696     517.352
  C      162.191    -512.797     516.709
  O      162.750    -512.722     515.613
  N      162.073    -513.995     517.359
  C      161.359    -514.216     518.504
  O      161.210    -515.329     519.003
  C      160.745    -513.040     519.116
  C      160.897    -511.845     518.523
  O      158.110    -506.958     520.803
  O      158.260    -509.455     521.340
  H      160.271    -509.165     514.008
  H      157.521    -509.174     521.912
  H      162.474    -514.799     516.905
  H      160.186    -513.177     520.038
  H      160.448    -510.968     518.963
  H      162.695    -510.382     516.151
  H      160.075    -511.055     515.340
  H      159.091    -509.854     517.184
  H      161.124    -507.637     516.572
  H      160.946    -507.289     519.065
  H      159.450    -506.881     518.173
  P      157.227    -508.742     515.667
  C      156.417    -506.299     515.677
  O      156.500    -507.517     514.936
  O      156.628    -509.143     516.977
  O      157.109    -509.923     514.595
  H      156.731    -510.716     515.026
  H      155.915    -505.558     515.091
  H      157.403    -505.958     515.914
  H      155.871    -506.468     516.582

 6  7  8  9  10  11  12  13  14  15  16  26  31  32  33  34  35 0
 6-311+G(2d,p)
 ****
 36  37 0
 6-311+G(2d,p)
 ****
 1  2  3  4  5  17  18  19  20  21  22  23  24  25 0
 3-21G
 ****
 27  28  29  30  38  39  40  41  42  43  44  45 0
 3-21G
 ****


