%nproc=1
%NoSave
%Mem=1900MB
#P OB98/GEN NMR

erre ene a

0 1
  C     -661.386    2733.388     524.828
  O     -660.830    2734.586     524.374
  H     -661.465    2733.432     525.937
  H     -660.762    2732.548     524.564
  H     -662.404    2733.252     524.429
  P     -660.737    2734.845     522.795
  C     -662.856    2736.349     523.067
  O     -662.205    2735.315     522.300
  C     -664.376    2736.133     523.032
  O     -664.871    2736.316     521.700
  C     -664.796    2734.728     523.535
  O     -665.974    2734.836     524.278
  C     -665.070    2733.986     522.223
  O     -666.015    2732.935     522.375
  C     -665.586    2735.126     521.336
  N     -667.968    2734.295     516.929
  C     -668.476    2734.672     518.174
  N     -669.805    2734.812     518.239
  N     -667.731    2734.871     519.224
  C     -666.412    2734.680     518.987
  C     -665.795    2734.328     517.807
  C     -666.600    2734.095     516.655
  O     -666.220    2733.759     515.539
  N     -664.411    2734.264     517.993
  C     -664.228    2734.576     519.270
  N     -665.386    2734.835     519.895
  O     -660.154    2733.744     521.996
  O     -659.877    2736.185     522.665
  H     -666.359    2732.717     521.466
  H     -658.971    2735.984     522.337
  H     -668.556    2734.157     516.166
  H     -663.262    2734.600     519.758
  H     -666.654    2735.312     521.461
  H     -664.138    2733.582     521.789
  H     -670.447    2734.701     517.459
  H     -663.994    2734.233     524.106
  H     -670.224    2735.098     519.121
  H     -664.828    2736.900     523.683
  H     -662.600    2737.290     522.578
  H     -662.461    2736.338     524.069
  P     -665.949    2734.434     525.849
  C     -666.435    2736.918     526.399
  O     -665.634    2735.758     526.695
  O     -665.106    2733.244     526.184
  O     -667.498    2734.164     526.171
  H     -667.548    2733.475     526.853
  H     -666.131    2737.731     527.025
  H     -667.466    2736.695     526.580
  H     -666.303    2737.190     525.373

 6  7  8  9  10  11  12  13  14  15  26  29  33  34 0
 6-311+G(2d,p)
 ****
 36  38  39  40  41 0
 6-311+G(2d,p)
 ****
 1  2  3  4  5  16  17  18  19  20  21  22  23  24  25 0
 3-21G
 ****
 27  28  30  31  32  35  37  42  43  44  45  46  47 0
 3-21G
 ****
 48  49 0
 3-21G
 ****


