%nproc=1
%NoSave
%Mem=1900MB
#P OB98/GEN NMR

erre ene a

0 1
  C     -620.144    -452.285    -556.222
  O     -620.800    -452.690    -555.009
  P     -622.353    -452.432    -554.731
  C     -623.274    -451.468    -552.524
  O     -622.648    -452.581    -553.164
  C     -623.085    -451.508    -551.007
  O     -623.433    -452.812    -550.473
  C     -621.665    -451.239    -550.526
  O     -621.352    -449.860    -550.594
  C     -621.715    -451.816    -549.111
  O     -622.286    -450.872    -548.191
  C     -622.643    -453.034    -549.289
  N     -621.911    -454.285    -549.357
  C     -621.050    -454.572    -548.291
  O     -620.899    -453.744    -547.381
  N     -620.356    -455.762    -548.293
  C     -620.466    -456.562    -549.306
  N     -619.775    -457.737    -549.245
  C     -621.292    -456.270    -550.490
  C     -621.975    -455.123    -550.448
  O     -623.269    -453.241    -555.604
  O     -622.571    -450.858    -555.004
  H     -622.311    -451.305    -547.327
  H     -623.477    -450.719    -555.338
  H     -621.335    -456.962    -551.322
  H     -622.615    -454.835    -551.266
  H     -623.366    -453.090    -548.464
  H     -620.720    -452.075    -548.726
  H     -620.954    -451.831    -551.137
  H     -623.782    -450.776    -550.550
  H     -619.218    -457.917    -548.415
  H     -624.351    -451.503    -552.752
  H     -619.782    -458.434    -549.979
  H     -622.863    -450.541    -552.929
  P     -619.869    -449.411    -550.997
  C     -619.413    -447.606    -549.216
  O     -619.711    -447.862    -550.581
  O     -619.439    -449.727    -552.388
  O     -618.936    -450.156    -549.926
  H     -618.072    -450.365    -550.331
  H     -618.939    -446.628    -549.134
  H     -618.728    -448.366    -548.804
  H     -620.347    -447.609    -548.630
  H     -619.112    -452.563    -556.179
  H     -620.223    -451.224    -556.333
  H     -620.609    -452.767    -557.057

 3  4  5  6  7  8  9  10  11  12  13  23  27  28  29  30  32 0
 6-311+G(2d,p)
 ****
 34  35 0
 6-311+G(2d,p)
 ****
 1  2  14  15  16  17  18  19  20  21  22  24  25  26 0
 3-21G
 ****
 31  33  36  37  38  39  40  41  42  43  44  45  46 0
 3-21G
 ****


