%nproc=1
%NoSave
%Mem=1900MB
#P OB98/GEN NMR

erre ene a

0 1
  C     -129.554     -46.369     -28.143
  O     -129.463     -47.765     -28.326
  H     -130.549     -46.132     -27.758
  H     -129.418     -45.859     -29.100
  H     -128.810     -46.013     -27.428
  P     -128.022     -48.419     -28.571
  C     -126.194     -48.291     -30.389
  O     -127.471     -47.840     -29.963
  C     -126.178     -48.523     -31.906
  O     -127.015     -49.667     -32.216
  C     -126.764     -47.323     -32.663
  O     -126.220     -47.199     -33.974
  C     -128.237     -47.683     -32.772
  O     -128.900     -47.012     -33.845
  C     -128.168     -49.199     -32.938
  N     -132.866     -50.849     -34.043
  C     -132.043     -50.006     -34.765
  N     -132.541     -49.543     -35.938
  N     -130.858     -49.631     -34.365
  C     -130.522     -50.111     -33.143
  C     -131.258     -50.937     -32.322
  C     -132.557     -51.371     -32.793
  O     -133.333     -52.100     -32.182
  N     -130.593     -51.205     -31.151
  C     -129.459     -50.543     -31.260
  N     -129.356     -49.884     -32.463
  O     -128.357     -49.943     -28.941
  O     -127.068     -48.330     -27.419
  H     -129.816     -47.347     -33.875
  H     -127.584     -50.511     -28.772
  H     -133.758     -51.129     -34.410
  H     -128.674     -50.521     -30.513
  H     -128.034     -49.466     -33.993
  H     -128.733     -47.376     -31.846
  H     -133.513     -49.648     -36.181
  H     -126.628     -46.384     -32.132
  H     -132.098     -48.700     -36.316
  H     -125.164     -48.772     -32.238
  H     -125.990     -49.223     -29.857
  H     -125.422     -47.577     -30.099
  P     -125.153     -46.037     -34.255
  C     -125.240     -43.454     -34.832
  O     -125.911     -44.661     -34.546
  O     -124.522     -46.431     -35.669
  O     -124.104     -45.892     -33.194
  H     -123.575     -46.643     -35.572
  H     -125.957     -42.676     -34.990
  H     -124.646     -43.576     -35.714
  H     -124.607     -43.194     -34.009

 6  7  8  9  10  11  12  13  14  15  26  29  33  34 0
 6-311+G(2d,p)
 ****
 36  38  39  40  41 0
 6-311+G(2d,p)
 ****
 1  2  3  4  5  16  17  18  19  20  21  22  23  24  25 0
 3-21G
 ****
 27  28  30  31  32  35  37  42  43  44  45  46  47 0
 3-21G
 ****
 48  49 0
 3-21G
 ****


