%nproc=1
%NoSave
%Mem=1900MB
#P OB98/GEN NMR

erre ene a

0 1
  C     -516.065     992.735    -341.010
  O     -515.429     992.712    -339.749
  H     -516.626     991.803    -341.131
  H     -515.333     992.807    -341.812
  H     -516.769     993.572    -341.073
  P     -514.534     993.982    -339.333
  C     -516.255     994.879    -337.630
  O     -514.958     994.342    -337.826
  C     -516.796     994.457    -336.271
  O     -517.095     993.043    -336.257
  C     -515.830     994.698    -335.108
  O     -515.895     996.056    -334.702
  C     -516.396     993.730    -334.077
  O     -517.579     994.293    -333.480
  C     -516.750     992.524    -334.940
  N     -514.590     988.352    -333.021
  C     -515.638     989.109    -332.544
  N     -516.172     988.727    -331.349
  N     -516.122     990.158    -333.161
  C     -515.455     990.470    -334.287
  C     -514.387     989.812    -334.854
  C     -513.888     988.611    -334.192
  O     -512.982     987.912    -334.586
  N     -513.926     990.467    -335.979
  C     -514.746     991.489    -336.113
  N     -515.677     991.543    -335.099
  O     -514.567     995.149    -340.265
  O     -513.059     993.379    -339.169
  H     -517.854     993.689    -332.764
  H     -512.553     993.457    -339.998
  H     -514.253     987.564    -332.491
  H     -514.702     992.214    -336.912
  H     -517.633     991.982    -334.565
  H     -515.694     993.530    -333.262
  H     -515.674     988.114    -330.724
  H     -514.810     994.392    -335.357
  H     -516.917     989.284    -330.969
  H     -517.757     994.978    -336.108
  H     -516.902     994.497    -338.435
  H     -516.234     995.968    -337.692
  P     -514.619     996.778    -334.036
  C     -514.397     998.339    -336.094
  O     -514.592     998.249    -334.679
  O     -513.334     996.020    -334.169
  O     -515.051     997.060    -332.530
  H     -514.859     996.309    -331.912
  H     -514.400     999.367    -336.390
  H     -515.187     997.821    -336.597
  H     -513.458     997.896    -336.354

 6  7  8  9  10  11  12  13  14  15  26  29  33  34 0
 6-311+G(2d,p)
 ****
 36  38  39  40  41 0
 6-311+G(2d,p)
 ****
 1  2  3  4  5  16  17  18  19  20  21  22  23  24  25 0
 3-21G
 ****
 27  28  30  31  32  35  37  42  43  44  45  46  47 0
 3-21G
 ****
 48  49 0
 3-21G
 ****


