%nproc=1
%NoSave
%Mem=1900MB
#P OB98/GEN NMR

erre ene a

0 1
  C     -298.262    -614.183    -620.913
  O     -296.924    -614.645    -620.841
  H     -298.832    -614.621    -620.089
  H     -298.717    -614.488    -621.859
  H     -298.291    -613.092    -620.824
  P     -295.952    -614.190    -622.037
  C     -295.745    -611.778    -621.055
  O     -296.186    -612.597    -622.129
  C     -294.441    -611.088    -621.443
  O     -294.567    -610.444    -622.735
  C     -294.010    -609.973    -620.481
  O     -293.400    -610.483    -619.298
  C     -293.019    -609.230    -621.353
  O     -291.779    -609.962    -621.425
  C     -293.757    -609.238    -622.723
  N     -294.586    -608.049    -622.927
  C     -293.921    -606.813    -622.947
  O     -292.702    -606.759    -622.777
  N     -294.662    -605.671    -623.120
  C     -295.945    -605.747    -623.278
  N     -296.632    -604.578    -623.434
  C     -296.677    -607.023    -623.289
  C     -295.952    -608.116    -623.110
  O     -296.686    -614.725    -623.350
  O     -294.521    -614.612    -621.912
  H     -291.211    -609.486    -622.053
  H     -296.226    -614.388    -624.161
  H     -297.758    -607.036    -623.408
  H     -296.424    -609.097    -623.097
  H     -293.034    -609.315    -623.548
  H     -292.775    -608.232    -620.974
  H     -294.839    -609.310    -620.243
  H     -293.663    -611.855    -621.539
  H     -296.107    -603.708    -623.365
  H     -295.590    -612.406    -620.172
  H     -297.644    -604.525    -623.380
  H     -296.504    -611.025    -620.826
  P     -293.470    -609.566    -617.977
  C     -295.716    -610.542    -617.070
  O     -295.033    -609.416    -617.601
  O     -293.079    -608.115    -618.518
  O     -292.583    -610.009    -616.851
  H     -292.522    -607.637    -617.875
  H     -296.735    -610.281    -616.875
  H     -295.245    -610.848    -616.159
  H     -295.682    -611.345    -617.776

 6  7  8  9  10  11  12  13  14  15  16  26  30  31  32  33  35 0
 6-311+G(2d,p)
 ****
 37  38 0
 6-311+G(2d,p)
 ****
 1  2  3  4  5  17  18  19  20  21  22  23  24  25 0
 3-21G
 ****
 27  28  29  34  36  39  40  41  42  43  44  45  46 0
 3-21G
 ****


