%nproc=1
%NoSave
%Mem=1900MB
#P OB98/GEN NMR

erre ene a

0 1
  C     -103.908     497.506    -151.506
  O     -105.031     497.787    -152.320
  H     -104.210     496.921    -150.635
  H     -103.185     496.924    -152.088
  H     -103.432     498.437    -151.183
  P     -106.211     498.646    -151.656
  C     -106.286     500.629    -153.339
  O     -105.907     500.175    -152.040
  C     -105.046     501.096    -154.093
  O     -104.214     499.961    -154.431
  C     -105.344     501.794    -155.413
  O     -105.701     503.156    -155.233
  C     -104.000     501.664    -156.111
  O     -103.078     502.630    -155.572
  C     -103.576     500.243    -155.709
  N     -102.765     498.391    -160.413
  C     -102.223     499.435    -159.747
  N     -102.499     499.864    -158.499
  C     -103.439     499.098    -157.926
  C     -104.091     498.007    -158.483
  C     -103.714     497.649    -159.793
  N     -104.279     496.596    -160.481
  N     -105.024     497.495    -157.604
  C     -104.914     498.241    -156.527
  N     -103.977     499.227    -156.677
  O     -105.877     498.594    -150.088
  O     -107.597     498.187    -151.959
  H     -103.260     503.475    -156.032
  H     -106.680     498.797    -149.570
  H     -101.469     499.999    -160.293
  H     -105.483     498.106    -155.616
  H     -102.494     500.151    -155.568
  H     -104.055     501.837    -157.187
  H     -106.105     501.254    -155.997
  H     -104.464     501.749    -153.428
  H     -106.985     501.463    -153.235
  H     -104.074     496.543    -161.466
  H     -105.084     496.142    -160.081
  H     -106.778     499.810    -153.872
  P     -106.973     503.698    -156.044
  C     -108.529     504.240    -154.027
  O     -108.251     503.378    -155.131
  O     -107.107     502.659    -157.252
  O     -106.855     505.113    -156.519
  H     -107.547     503.072    -158.021
  H     -109.406     503.898    -153.519
  H     -108.689     505.236    -154.384
  H     -107.700     504.232    -153.351

 6  7  8  9  10  11  12  13  14  15  25  28  32  33  34  35 0
 6-311+G(2d,p)
 ****
 36  39  40 0
 6-311+G(2d,p)
 ****
 1  2  3  4  5  16  17  18  19  20  21  22  23  24 0
 3-21G
 ****
 26  27  29  30  31  37  38  41  42  43  44  45  46  47 0
 3-21G
 ****
 48 0
 3-21G
 ****


