%nproc=1
%NoSave
%Mem=1900MB
#P OB98/GEN NMR

erre ene a

0 1
  C      562.430     309.722    -216.497
  O      561.666     308.814    -217.266
  H      562.829     310.492    -217.160
  H      563.260     309.207    -216.012
  H      561.798     310.200    -215.745
  P      561.029     307.567    -216.476
  C      562.755     305.845    -217.316
  O      561.404     306.291    -217.382
  C      563.152     305.141    -218.616
  O      562.438     303.878    -218.694
  C      562.800     305.947    -219.878
  O      563.815     305.728    -220.862
  C      561.502     305.303    -220.343
  O      561.267     305.513    -221.734
  C      561.732     303.846    -219.943
  N      557.872     301.794    -222.568
  C      559.063     302.290    -222.950
  N      560.044     302.800    -222.179
  C      559.724     302.709    -220.875
  C      558.548     302.230    -220.329
  C      557.583     301.761    -221.238
  N      556.355     301.281    -220.856
  N      558.575     302.344    -218.951
  C      559.749     302.878    -218.670
  N      560.474     303.129    -219.812
  O      559.583     307.696    -216.129
  O      562.027     307.420    -215.236
  H      562.090     305.297    -222.222
  H      562.963     307.459    -215.518
  H      559.246     302.291    -224.030
  H      560.120     303.103    -217.678
  H      562.343     303.292    -220.680
  H      560.662     305.728    -219.792
  H      562.687     307.009    -219.687
  H      564.222     304.902    -218.581
  H      562.881     305.149    -216.475
  H      555.714     300.966    -221.574
  H      556.115     301.239    -219.875
  H      563.392     306.718    -217.146
  P      564.746     306.950    -221.299
  C      564.217     306.859    -223.819
  O      565.222     306.727    -222.814
  O      565.847     307.301    -220.346
  O      563.710     308.166    -221.435
  H      564.096     308.976    -221.052
  H      564.651     306.689    -224.782
  H      563.804     307.845    -223.783
  H      563.443     306.141    -223.645

 6  7  8  9  10  11  12  13  14  15  25  28  32  33  34  35 0
 6-311+G(2d,p)
 ****
 36  39  40 0
 6-311+G(2d,p)
 ****
 1  2  3  4  5  16  17  18  19  20  21  22  23  24 0
 3-21G
 ****
 26  27  29  30  31  37  38  41  42  43  44  45  46  47 0
 3-21G
 ****
 48 0
 3-21G
 ****


