%nproc=1
%NoSave
%Mem=1900MB
#P OB98/GEN NMR

erre ene a

0 1
  C     -168.497     309.751     -68.387
  O     -167.169     309.423     -68.762
  P     -166.925     307.983     -69.433
  C     -166.450     309.234     -71.667
  O     -167.147     308.174     -71.014
  C     -165.636     308.714     -72.856
  O     -166.526     308.020     -73.766
  C     -164.914     309.809     -73.644
  O     -163.652     309.287     -74.066
  C     -165.798     310.017     -74.861
  O     -165.067     310.553     -75.962
  C     -166.338     308.590     -75.078
  N     -167.581     308.587     -75.847
  C     -167.479     308.295     -77.215
  O     -166.371     308.144     -77.731
  N     -168.626     308.246     -77.972
  C     -169.762     308.557     -77.428
  N     -170.875     308.484     -78.214
  C     -169.898     308.982     -76.021
  C     -168.786     308.954     -75.293
  O     -168.213     307.152     -68.976
  O     -165.650     307.319     -69.030
  H     -164.313     309.950     -76.154
  H     -168.000     306.209     -68.863
  H     -170.869     309.267     -75.630
  H     -168.793     309.226     -74.241
  H     -165.599     307.973     -75.606
  H     -166.618     310.702     -74.618
  H     -164.757     310.720     -73.061
  H     -164.914     307.977     -72.479
  H     -170.750     308.204     -79.182
  H     -165.756     309.691     -70.953
  H     -171.804     308.713     -77.882
  H     -167.160     309.996     -71.988
  P     -162.472     310.330     -74.363
  C     -161.194     309.894     -72.176
  O     -161.974     310.814     -72.914
  O     -163.297     311.615     -74.867
  O     -161.417     309.950     -75.349
  H     -162.677     312.316     -75.139
  H     -160.816     310.398     -71.278
  H     -160.345     309.550     -72.770
  H     -161.807     309.045     -71.862
  H     -168.514     310.730     -67.957
  H     -168.851     309.040     -67.670
  H     -169.127     309.730     -69.251

 3  4  5  6  7  8  9  10  11  12  13  21  23  27  28  29  30  32 0
 6-311+G(2d,p)
 ****
 34  35 0
 6-311+G(2d,p)
 ****
 1  2  14  15  16  17  18  19  20  22  24  25  26 0
 3-21G
 ****
 31  33  36  37  38  39  40  41  42  43  44  45  46 0
 3-21G
 ****


