%nproc=1
%NoSave
%Mem=1900MB
#P OB98/GEN NMR

erre ene a

0 1
  C     -334.387    -709.504    -914.530
  O     -333.538    -708.380    -914.471
  H     -334.487    -709.925    -913.527
  H     -333.949    -710.265    -915.183
  H     -335.382    -709.235    -914.894
  P     -333.565    -707.380    -915.727
  C     -331.119    -708.163    -916.114
  O     -332.029    -707.069    -916.099
  C     -329.752    -707.712    -915.584
  O     -329.175    -706.759    -916.543
  C     -329.797    -707.036    -914.205
  O     -328.621    -707.401    -913.475
  C     -329.686    -705.559    -914.556
  O     -329.178    -704.779    -913.479
  C     -328.750    -705.624    -915.768
  N     -326.148    -701.465    -916.823
  C     -325.769    -702.613    -916.168
  N     -324.521    -702.649    -915.653
  N     -326.550    -703.656    -916.025
  C     -327.774    -703.487    -916.594
  C     -328.271    -702.401    -917.272
  C     -327.400    -701.258    -917.418
  O     -327.686    -700.204    -917.959
  N     -329.565    -702.610    -917.653
  C     -329.864    -703.818    -917.180
  N     -328.805    -704.382    -916.536
  O     -334.072    -706.008    -915.070
  O     -334.423    -707.802    -916.864
  H     -328.254    -705.065    -913.292
  H     -335.035    -705.934    -915.178
  H     -325.512    -700.686    -916.895
  H     -330.830    -704.300    -917.270
  H     -327.697    -705.770    -915.474
  H     -330.667    -705.163    -914.845
  H     -323.845    -701.905    -915.757
  H     -330.684    -707.263    -913.617
  H     -324.215    -703.498    -915.208
  H     -329.083    -708.592    -915.574
  H     -331.005    -708.528    -917.130
  H     -331.520    -708.969    -915.489
  P     -328.628    -708.809    -912.700
  C     -328.591    -708.094    -910.190
  O     -327.868    -708.610    -911.305
  O     -327.600    -709.698    -913.547
  O     -329.980    -709.439    -912.630
  H     -327.901    -710.634    -913.551
  H     -327.940    -708.024    -909.344
  H     -329.406    -708.748    -909.960
  H     -328.970    -707.122    -910.429

 6  7  8  9  10  11  12  13  14  15  26  29  33  34 0
 6-311+G(2d,p)
 ****
 36  38  39  40  41 0
 6-311+G(2d,p)
 ****
 1  2  3  4  5  16  17  18  19  20  21  22  23  24  25 0
 3-21G
 ****
 27  28  30  31  32  35  37  42  43  44  45  46  47 0
 3-21G
 ****
 48  49 0
 3-21G
 ****


