%nproc=1
%NoSave
%Mem=1900MB
#P OB98/GEN NMR

erre ene a

0 1
  C      211.770    -255.957    -401.227
  O      211.670    -256.608    -402.480
  P      212.053    -255.756    -403.791
  C      214.343    -256.979    -403.908
  O      213.650    -255.737    -403.867
  C      215.855    -256.738    -403.880
  O      216.237    -256.051    -402.673
  C      216.688    -258.015    -403.908
  O      216.830    -258.541    -405.209
  C      218.022    -257.496    -403.387
  O      218.743    -256.851    -404.452
  C      217.582    -256.467    -402.338
  N      217.783    -255.333    -397.399
  C      217.587    -254.509    -398.496
  N      217.493    -253.179    -398.234
  N      217.493    -254.937    -399.720
  C      217.618    -256.282    -399.834
  C      217.814    -257.205    -398.824
  C      217.929    -256.713    -397.469
  O      218.157    -257.387    -396.471
  N      217.886    -258.479    -399.322
  C      217.724    -258.337    -400.625
  N      217.609    -257.014    -400.990
  O      211.686    -254.251    -403.374
  O      211.348    -256.183    -405.036
  H      219.218    -257.555    -404.939
  H      211.618    -253.691    -404.171
  H      217.855    -254.953    -396.472
  H      217.709    -259.149    -401.343
  H      218.216    -255.574    -402.344
  H      218.665    -258.294    -403.006
  H      217.618    -252.787    -397.316
  H      216.291    -258.760    -403.205
  H      217.408    -252.548    -399.021
  H      216.112    -256.096    -404.736
  H      214.074    -257.512    -404.826
  H      214.044    -257.585    -403.050
  P      216.227    -260.008    -405.467
  C      215.146    -259.364    -407.742
  O      214.943    -259.783    -406.401
  O      215.599    -260.398    -404.048
  O      217.224    -261.016    -405.942
  H      215.577    -261.373    -403.936
  H      214.214    -259.517    -408.300
  H      215.940    -259.943    -408.223
  H      215.401    -258.298    -407.771
  H      211.488    -256.635    -400.449
  H      211.119    -255.108    -401.213
  H      212.779    -255.636    -401.071

 3  4  5  6  7  8  9  10  11  12  23  26  30  31 0
 6-311+G(2d,p)
 ****
 33  35  36  37  38 0
 6-311+G(2d,p)
 ****
 1  2  13  14  15  16  17  18  19  20  21  22  24  25 0
 3-21G
 ****
 27  28  29  32  34  39  40  41  42  43  44  45  46  47  48  49 0
 3-21G
 ****


