%nproc=1
%NoSave
%Mem=1900MB
#P OB98/GEN NMR

erre ene a

0 1
  C       34.166      86.499     184.555
  O       33.215      85.734     183.841
  H       35.047      86.640     183.923
  H       34.471      85.989     185.472
  H       33.751      87.482     184.797
  P       31.942      85.174     184.644
  C       31.757      83.783     186.811
  O       32.520      84.050     185.637
  C       32.652      83.266     187.940
  O       33.701      84.215     188.217
  C       31.924      83.079     189.262
  O       30.995      82.017     189.266
  C       33.068      83.082     190.268
  O       33.667      81.804     190.449
  C       34.079      84.044     189.598
  N       34.171      85.318     190.299
  C       34.643      85.259     191.605
  O       34.951      84.208     192.170
  N       34.713      86.451     192.272
  C       34.315      87.661     191.782
  O       34.364      88.691     192.444
  C       33.799      87.658     190.403
  C       33.752      86.504     189.734
  O       30.795      84.704     183.799
  O       31.561      86.371     185.635
  H       34.571      81.955     190.787
  H       30.647      86.261     185.990
  H       35.063      86.428     193.215
  H       33.472      88.600     189.985
  H       33.372      86.476     188.715
  H       35.081      83.593     189.591
  H       32.734      83.421     191.252
  H       31.342      83.988     189.460
  H       33.118      82.331     187.611
  H       31.017      83.017     186.560
  H       31.233      84.692     187.125
  P       29.978      81.747     190.467
  C       30.033      81.919     193.059
  O       30.785      81.891     191.851
  O       29.035      80.599     190.305
  O       29.097      83.100     190.447
  H       28.186      82.861     190.707
  H       30.698      82.018     193.891
  H       29.476      81.010     193.154
  H       29.359      82.750     193.041

 6  7  8  9  10  11  12  13  14  15  16  26  31  32  33  34  35 0
 6-311+G(2d,p)
 ****
 36  37 0
 6-311+G(2d,p)
 ****
 1  2  3  4  5  17  18  19  20  21  22  23  24  25 0
 3-21G
 ****
 27  28  29  30  38  39  40  41  42  43  44  45 0
 3-21G
 ****


