%nproc=1
%NoSave
%Mem=1900MB
#P OB98/GEN NMR

erre ene a

0 1
  C      197.417    -508.465    -176.412
  O      196.250    -507.666    -176.299
  P      196.078    -506.325    -177.163
  C      194.151    -505.305    -178.549
  O      194.587    -506.395    -177.746
  C      192.720    -505.557    -179.031
  O      192.725    -506.627    -179.998
  C      191.747    -505.990    -177.934
  O      191.350    -504.877    -177.142
  C      190.646    -506.629    -178.767
  O      189.790    -505.619    -179.327
  C      191.447    -507.318    -179.895
  N      191.638    -508.744    -179.665
  C      190.481    -509.490    -179.415
  O      189.368    -508.960    -179.406
  N      190.606    -510.846    -179.215
  C      191.782    -511.399    -179.245
  N      191.840    -512.754    -179.108
  C      193.029    -510.637    -179.446
  C      192.885    -509.331    -179.655
  O      197.139    -506.101    -178.190
  O      195.969    -505.159    -176.078
  H      189.177    -506.074    -179.937
  H      196.844    -504.780    -175.809
  H      193.985    -511.145    -179.444
  H      193.749    -508.704    -179.833
  H      190.947    -507.173    -180.861
  H      190.018    -507.322    -178.197
  H      192.209    -506.745    -177.288
  H      192.361    -504.649    -179.531
  H      190.950    -513.255    -179.150
  H      194.812    -505.220    -179.417
  H      192.651    -513.280    -179.399
  H      194.212    -504.380    -177.968
  P      190.563    -505.187    -175.782
  C      190.822    -504.418    -173.321
  O      191.379    -504.439    -174.617
  O      190.851    -506.744    -175.535
  O      189.103    -504.882    -175.838
  H      190.079    -507.279    -175.805
  H      191.592    -504.093    -172.616
  H      190.481    -505.420    -173.026
  H      189.987    -503.711    -173.277
  H      197.337    -509.308    -175.758
  H      198.274    -507.884    -176.142
  H      197.520    -508.805    -177.421

 3  4  5  6  7  8  9  10  11  12  13  23  27  28  29  30  32 0
 6-311+G(2d,p)
 ****
 34  35 0
 6-311+G(2d,p)
 ****
 1  2  14  15  16  17  18  19  20  21  22  24  25  26 0
 3-21G
 ****
 31  33  36  37  38  39  40  41  42  43  44  45  46 0
 3-21G
 ****


