%nproc=1
%NoSave
%Mem=1900MB
#P OB98/GEN NMR

erre ene a

0 1
  C       17.039      14.478      28.315
  O       16.796      15.821      28.697
  P       17.800      17.006      28.285
  C       18.227      18.200      26.031
  O       17.816      17.011      26.682
  C       18.838      17.876      24.666
  O       20.182      17.366      24.870
  C       18.063      16.827      23.859
  O       18.178      17.184      22.478
  C       18.826      15.548      24.147
  O       18.616      14.552      23.157
  C       20.261      16.080      24.226
  N       21.151      15.182      24.952
  C       21.693      14.101      24.255
  O       21.408      13.901      23.076
  N       22.554      13.260      24.915
  C       22.785      13.432      26.179
  N       23.692      12.608      26.772
  C       22.149      14.496      26.978
  C       21.372      15.336      26.301
  O       19.145      16.936      28.921
  O       16.989      18.342      28.612
  H       19.221      13.808      23.337
  H       17.077      18.625      29.556
  H       22.352      14.581      28.036
  H       20.883      16.161      26.800
  H       20.654      16.256      23.218
  H       18.502      15.139      25.110
  H       17.005      16.779      24.134
  H       18.926      18.808      24.096
  H       24.233      12.009      26.157
  H       18.985      18.689      26.649
  H       24.156      12.877      27.632
  H       17.374      18.879      25.929
  P       17.157      16.518      21.432
  C       14.604      16.654      20.994
  O       15.667      16.883      21.893
  O       17.257      14.964      21.829
  O       17.480      16.693      19.985
  H       17.021      14.423      21.053
  H       13.669      16.952      21.476
  H       14.539      15.593      20.737
  H       14.735      17.248      20.086
  H       16.255      13.853      28.689
  H       17.975      14.156      28.720
  H       17.070      14.411      27.248

 3  4  5  6  7  8  9  10  11  12  13  23  27  28  29  30  32 0
 6-311+G(2d,p)
 ****
 34  35 0
 6-311+G(2d,p)
 ****
 1  2  14  15  16  17  18  19  20  21  22  24  25  26 0
 3-21G
 ****
 31  33  36  37  38  39  40  41  42  43  44  45  46 0
 3-21G
 ****


