%nproc=1
%NoSave
%Mem=1900MB
#P OB98/GEN NMR

erre ene a

0 1
  C     -256.329     127.660     275.526
  O     -256.769     127.530     274.169
  P     -256.050     128.355     272.991
  C     -257.166     130.605     273.454
  O     -257.025     129.546     272.516
  C     -258.436     131.445     273.236
  O     -258.373     132.158     271.976
  C     -259.746     130.653     273.239
  O     -260.735     131.517     273.802
  C     -259.990     130.432     271.754
  O     -261.350     130.087     271.478
  C     -259.516     131.767     271.180
  N     -259.188     131.671     269.761
  C     -260.247     131.547     268.861
  O     -261.405     131.458     269.281
  N     -259.971     131.466     267.525
  C     -258.749     131.420     267.114
  N     -258.535     131.321     265.770
  C     -257.579     131.469     268.039
  C     -257.875     131.607     269.329
  O     -255.510     127.513     271.876
  O     -254.858     129.128     273.744
  H     -261.530     130.286     270.539
  H     -254.119     129.253     273.123
  H     -256.571     131.411     267.646
  H     -257.100     131.658     270.078
  H     -260.283     132.539     271.298
  H     -259.357     129.612     271.396
  H     -259.683     129.717     273.806
  H     -258.466     132.215     274.026
  H     -259.359     131.259     265.177
  H     -256.287     131.261     273.380
  H     -257.627     131.171     265.358
  H     -257.169     130.201     274.470
  P     -261.330     131.300     275.272
  C     -263.792     131.384     274.572
  O     -262.762     132.011     275.303
  O     -260.416     131.692     276.388
  O     -261.692     129.738     275.335
  H     -261.792     129.463     276.265
  H     -264.756     131.830     274.840
  H     -263.830     130.314     274.794
  H     -263.618     131.520     273.494
  H     -256.928     127.036     276.156
  H     -256.427     128.679     275.836
  H     -255.304     127.362     275.599

 3  4  5  6  7  8  9  10  11  12  13  23  27  28  29  30  32 0
 6-311+G(2d,p)
 ****
 34  35 0
 6-311+G(2d,p)
 ****
 1  2  14  15  16  17  18  19  20  21  22  24  25  26 0
 3-21G
 ****
 31  33  36  37  38  39  40  41  42  43  44  45  46 0
 3-21G
 ****


