%nproc=1
%NoSave
%Mem=1900MB
#P OB98/GEN NMR

erre ene a

0 1
  C      251.365     143.754      45.224
  O      250.010     144.016      45.600
  P      248.870     143.508      44.584
  C      248.013     145.913      44.077
  O      248.567     144.709      43.565
  C      247.921     146.975      42.984
  O      249.211     147.228      42.398
  C      247.022     146.592      41.817
  O      245.650     146.792      42.121
  C      247.488     147.575      40.752
  O      246.838     148.846      40.941
  C      248.992     147.693      41.043
  N      252.831     147.781      37.736
  C      252.265     148.811      38.462
  N      252.819     150.033      38.305
  N      251.250     148.658      39.270
  C      250.819     147.375      39.351
  C      251.295     146.271      38.684
  C      252.400     146.462      37.767
  O      252.918     145.590      37.076
  N      250.609     145.137      39.031
  C      249.736     145.548      39.930
  N      249.814     146.903      40.148
  O      247.561     143.470      45.507
  O      249.159     142.182      43.964
  H      247.183     149.449      40.252
  H      246.930     142.810      45.163
  H      253.608     147.960      37.123
  H      249.033     144.911      40.452
  H      249.336     148.733      40.998
  H      247.248     147.246      39.737
  H      253.646     150.210      37.756
  H      247.225     145.565      41.486
  H      252.437     150.792      38.857
  H      247.559     147.905      43.444
  H      248.633     146.287      44.895
  H      247.026     145.697      44.500
  P      244.801     145.503      42.559
  C      243.726     144.936      40.269
  O      244.689     144.595      41.246
  O      243.326     146.091      42.754
  O      245.302     144.823      43.790
  H      242.839     145.566      43.417
  H      243.703     146.013      40.092
  H      242.737     144.596      40.594
  H      243.980     144.432      39.332
  H      252.024     144.137      45.975
  H      251.574     144.231      44.289
  H      251.510     142.698      45.127

 3  4  5  6  7  8  9  10  11  12  23  26  30  31  33  0
 6-311+G(2d,p)
 ****
 35  36  37  38 0
 6-311+G(2d,p)
 ****
 1  2  13  14  15  16  17  18  19  20  21  22  24  25  27  28  29 0
 3-21G
 ****
 32  34  39  40  41  42  43  44  45  46  47  48  49 0
 3-21G
 ****


