%nproc=1
%NoSave
%Mem=1900MB
#P OB98/GEN NMR

erre ene a

0 1
  C      -25.869     -15.192      11.806
  O      -24.930     -15.733      12.724
  P      -24.765     -17.329      12.769
  C      -26.032     -19.286      13.889
  O      -26.022     -17.897      13.589
  C      -27.453     -19.840      13.862
  O      -27.988     -19.696      12.517
  C      -27.562     -21.327      14.244
  O      -28.688     -21.511      15.116
  C      -27.886     -22.011      12.924
  O      -28.579     -23.239      13.113
  C      -28.704     -20.916      12.236
  N      -31.810     -22.715       8.677
  C      -32.053     -22.459      10.016
  N      -33.281     -22.787      10.478
  N      -31.171     -21.937      10.830
  C      -29.999     -21.632      10.220
  C      -29.641     -21.827       8.905
  C      -30.606     -22.464       8.032
  O      -30.421     -22.795       6.861
  N      -28.369     -21.375       8.660
  C      -27.953     -20.910       9.824
  N      -28.890     -21.087      10.815
  O      -23.532     -17.527      13.772
  O      -24.503     -17.979      11.453
  H      -28.114     -23.722      13.824
  H      -22.829     -18.047      13.330
  H      -32.518     -23.133       8.102
  H      -26.979     -20.467      10.004
  H      -29.702     -20.841      12.698
  H      -26.952     -22.212      12.385
  H      -34.019     -23.157       9.898
  H      -26.662     -21.735      14.714
  H      -33.485     -22.586      11.447
  H      -28.081     -19.224      14.522
  H      -25.607     -19.441      14.886
  H      -25.410     -19.808      13.155
  P      -28.417     -22.372      16.443
  C      -28.679     -24.916      16.965
  O      -28.490     -23.908      15.988
  O      -29.755     -22.164      17.300
  O      -27.188     -21.966      17.188
  H      -29.576     -22.301      18.249
  H      -28.925     -24.493      17.948
  H      -27.765     -25.504      17.051
  H      -29.500     -25.567      16.648
  H      -25.872     -14.125      11.886
  H      -26.845     -15.569      12.030
  H      -25.598     -15.474      10.810

 3  4  5  6  7  8  9  10  11  12  23  26  30  31  33  0
 6-311+G(2d,p)
 ****
 35  36  37  38 0
 6-311+G(2d,p)
 ****
 1  2  13  14  15  16  17  18  19  20  21  22  24  25  27  28  29 0
 3-21G
 ****
 32  34  39  40  41  42  43  44  45  46  47  48  49 0
 3-21G
 ****


