%nproc=1
%NoSave
%Mem=1900MB
#P OB98/GEN NMR

erre ene a

0 1
  C       70.638    -487.445    -485.777
  O       71.266    -487.555    -487.036
  H       69.649    -487.002    -485.919
  H       71.218    -486.796    -485.116
  H       70.515    -488.431    -485.321
  P       72.745    -488.176    -487.103
  C       71.656    -490.529    -487.123
  O       72.574    -489.655    -486.488
  C       72.243    -491.934    -487.222
  O       73.272    -492.004    -488.233
  C       72.925    -492.434    -485.952
  O       72.023    -492.789    -484.918
  C       73.667    -493.634    -486.508
  O       72.744    -494.716    -486.725
  C       74.192    -493.062    -487.845
  N       75.556    -492.547    -487.743
  C       76.588    -493.489    -487.804
  O       76.341    -494.688    -487.928
  N       77.891    -493.056    -487.688
  C       78.133    -491.795    -487.500
  N       79.440    -491.423    -487.385
  C       77.074    -490.771    -487.412
  C       75.826    -491.210    -487.539
  O       73.832    -487.350    -486.497
  O       72.976    -488.499    -488.653
  H       73.275    -495.493    -486.978
  H       73.883    -488.878    -488.752
  H       77.330    -489.739    -487.225
  H       74.992    -490.518    -487.481
  H       74.161    -493.824    -488.634
  H       74.446    -494.006    -485.842
  H       73.663    -491.704    -485.591
  H       71.437    -492.607    -487.536
  H       80.141    -492.149    -487.450
  H       71.435    -490.128    -488.119
  H       79.717    -490.477    -487.164
  H       70.728    -490.582    -486.547
  P       72.617    -492.880    -483.428
  C       72.590    -490.284    -483.129
  O       73.351    -491.483    -483.152
  O       73.816    -493.927    -483.582
  O       71.636    -493.279    -482.376
  H       73.536    -494.819    -483.294
  H       73.237    -489.455    -482.933
  H       71.848    -490.347    -482.361
  H       72.112    -490.147    -484.076

 6  7  8  9  10  11  12  13  14  15  16  26  30  31  32  33  35 0
 6-311+G(2d,p)
 ****
 37  38 0
 6-311+G(2d,p)
 ****
 1  2  3  4  5  17  18  19  20  21  22  23  24  25 0
 3-21G
 ****
 27  28  29  34  36  39  40  41  42  43  44  45  46 0
 3-21G
 ****


