%nproc=1
%NoSave
%Mem=1900MB
#P OB98/GEN NMR

erre ene a

0 1
  C       89.129      74.583    -310.811
  O       88.568      75.771    -311.376
  P       88.017      75.643    -312.880
  C       90.030      76.818    -314.019
  O       89.293      75.614    -313.860
  C       90.966      76.733    -315.234
  O       92.018      75.749    -315.006
  C       90.250      76.335    -316.535
  O       90.901      77.037    -317.597
  C       90.542      74.843    -316.613
  O       90.310      74.292    -317.901
  C       91.989      74.839    -316.127
  N       92.626      70.027    -317.700
  C       92.104      71.115    -318.311
  N       91.965      72.367    -317.822
  C       92.445      72.432    -316.566
  C       93.002      71.415    -315.815
  C       93.091      70.154    -316.436
  N       93.600      69.036    -315.818
  N       93.357      71.870    -314.551
  C       92.942      73.125    -314.531
  N       92.464      73.530    -315.746
  O       87.350      77.070    -313.158
  O       87.058      74.515    -313.072
  H       90.760      73.424    -317.979
  H       86.385      77.022    -313.043
  H       91.746      70.959    -319.326
  H       92.968      73.780    -313.669
  H       92.678      75.227    -316.888
  H       89.897      74.307    -315.910
  H       89.183      76.577    -316.543
  H       91.452      77.710    -315.361
  H       90.626      77.015    -313.127
  H       93.621      68.174    -316.346
  H       93.945      69.086    -314.868
  H       89.330      77.657    -314.115
  P       90.068      78.138    -318.424
  C       89.207      76.588    -320.278
  O       88.876      77.310    -319.106
  O       91.046      78.369    -319.674
  O       89.713      79.387    -317.687
  H       91.312      77.520    -320.073
  H       88.333      76.013    -320.593
  H       90.033      75.903    -320.082
  H       89.479      77.284    -321.082
  H       89.461      74.785    -309.814
  H       89.959      74.263    -311.405
  H       88.387      73.813    -310.791

 3  4  5  6  7  8  9  10  11  12  22  25  29  30  31  32 0
 6-311+G(2d,p)
 ****
 33  36  37 0
 6-311+G(2d,p)
 ****
 1  2  13  14  15  16  17  18  19  20  21  23  24  26 0
 3-21G
 ****
 27  28  34  35  38  39  40  41  42  43  44  45  46  47  48 0
 3-21G
 ****


