%nproc=1
%NoSave
%Mem=1900MB
#P OB98/GEN NMR

erre ene a

0 1
  C      -60.739      96.996     -55.313
  O      -59.555      97.549     -55.850
  H      -60.632      95.909     -55.275
  H      -61.597      97.245     -55.943
  H      -60.900      97.371     -54.299
  P      -59.529      99.141     -56.043
  C      -59.524      98.648     -58.573
  O      -60.132      99.376     -57.514
  C      -59.623      99.429     -59.883
  O      -60.997      99.867     -60.056
  C      -58.734     100.678     -59.921
  O      -58.237     100.857     -61.248
  C      -59.703     101.801     -59.594
  O      -59.247     103.065     -60.068
  C      -60.982     101.290     -60.254
  N      -64.875     104.426     -61.217
  C      -63.950     103.859     -62.021
  N      -62.957     103.010     -61.681
  C      -63.011     102.718     -60.368
  C      -63.892     103.217     -59.427
  C      -64.859     104.123     -59.898
  N      -65.783     104.735     -59.083
  N      -63.596     102.714     -58.176
  C      -62.559     101.916     -58.361
  N      -62.160     101.905     -59.669
  O      -58.218      99.801     -55.782
  O      -60.733      99.609     -55.099
  H      -59.092     102.996     -61.034
  H      -61.529      99.060     -55.235
  H      -64.009     104.126     -63.073
  H      -62.058     101.345     -57.587
  H      -61.010     101.493     -61.333
  H      -59.831     101.878     -58.508
  H      -57.904     100.635     -59.217
  H      -59.397      98.754     -60.715
  H      -60.012      97.674     -58.690
  H      -66.441     105.370     -59.504
  H      -65.794     104.519     -58.097
  H      -58.474      98.480     -58.307
  P      -56.912     100.075     -61.695
  C      -55.535     102.230     -61.380
  O      -55.634     100.843     -61.095
  O      -56.818      99.736     -63.144
  O      -56.964      98.747     -60.798
  H      -56.699      97.982     -61.344
  H      -54.648     102.624     -60.929
  H      -56.391     102.737     -60.986
  H      -55.491     102.374     -62.439

 6  7  8  9  10  11  12  13  14  15  25  28  32  33  34  35 0
 6-311+G(2d,p)
 ****
 36  39  40 0
 6-311+G(2d,p)
 ****
 1  2  3  4  5  16  17  18  19  20  21  22  23  24 0
 3-21G
 ****
 26  27  29  30  31  37  38  41  42  43  44  45  46  47 0
 3-21G
 ****
 48 0
 3-21G
 ****


