%nproc=1
%NoSave
%Mem=1900MB
#P OB98/GEN NMR

erre ene a

0 1
  C       42.314     283.115     101.648
  O       42.020     281.741     101.457
  P       43.171     280.815     100.830
  C       44.310     280.901     103.163
  O       44.472     280.992     101.754
  C       45.668     280.889     103.867
  O       45.451     280.953     105.306
  C       46.523     279.643     103.588
  O       47.889     280.074     103.573
  C       46.231     278.778     104.801
  O       47.169     277.733     105.007
  C       46.174     279.846     105.888
  N       46.510     276.648     109.863
  C       47.367     276.922     108.853
  N       47.212     277.794     107.834
  C       46.031     278.427     107.927
  C       45.049     278.239     108.886
  C       45.326     277.300     109.893
  N       44.444     277.015     110.918
  N       43.959     279.048     108.640
  C       44.277     279.713     107.549
  N       45.525     279.385     107.094
  O       43.568     281.588      99.489
  O       42.765     279.397     100.563
  H       46.936     277.233     105.812
  H       43.748     280.964      98.761
  H       48.303     276.367     108.865
  H       43.638     280.424     107.042
  H       47.174     280.208     106.163
  H       45.249     278.305     104.672
  H       46.290     279.164     102.633
  H       46.215     281.797     103.580
  H       43.789     279.971     103.409
  H       44.647     276.192     111.467
  H       43.495     277.348     110.814
  H       43.694     281.736     103.512
  P       49.034     279.011     103.209
  C       49.040     280.150     100.905
  O       48.981     278.923     101.606
  O       48.323     277.638     103.631
  O       50.364     279.243     103.840
  H       47.432     277.564     103.243
  H       49.094     279.939      99.836
  H       49.928     280.715     101.202
  H       48.139     280.737     101.105
  H       41.462     283.607     102.070
  H       42.554     283.563     100.706
  H       43.147     283.212     102.312

 3  4  5  6  7  8  9  10  11  12  22  25  29  30  31  32 0
 6-311+G(2d,p)
 ****
 33  36  37 0
 6-311+G(2d,p)
 ****
 1  2  13  14  15  16  17  18  19  20  21  23  24  26 0
 3-21G
 ****
 27  28  34  35  38  39  40  41  42  43  44  45  46  47  48 0
 3-21G
 ****


