%nproc=1
%NoSave
%Mem=1900MB
#P OB98/GEN NMR

erre ene a

0 1
  C     -151.763      58.419     -12.857
  O     -151.381      59.012     -11.629
  P     -152.044      60.412     -11.216
  C     -152.831      59.494      -8.883
  O     -153.176      60.076     -10.126
  C     -153.389      60.334      -7.730
  O     -153.141      59.640      -6.477
  C     -152.774      61.735      -7.608
  O     -153.811      62.617      -7.159
  C     -151.727      61.549      -6.526
  O     -151.366      62.768      -5.897
  C     -152.438      60.550      -5.608
  N     -151.527      59.818      -4.728
  C     -151.507      60.162      -3.381
  O     -152.192      61.059      -2.892
  N     -150.635      59.449      -2.597
  C     -149.756      58.499      -3.030
  O     -148.986      57.904      -2.287
  C     -149.789      58.211      -4.471
  C     -150.664      58.864      -5.237
  O     -152.871      60.765     -12.537
  O     -151.057      61.445     -10.794
  H     -153.246      59.982     -12.971
  H     -150.898      62.553      -5.068
  H     -150.631      59.656      -1.609
  H     -149.096      57.473      -4.856
  H     -150.706      58.670      -6.302
  H     -153.194      61.068      -5.005
  H     -150.822      61.114      -6.967
  H     -152.364      62.094      -8.555
  H     -154.479      60.404      -7.850
  H     -151.746      59.443      -8.793
  H     -153.220      58.471      -8.842
  P     -153.753      64.156      -7.627
  C     -156.168      64.303      -8.628
  O     -154.773      64.325      -8.848
  O     -152.322      64.176      -8.352
  O     -153.854      65.154      -6.521
  H     -152.202      63.439      -8.974
  H     -156.665      64.757      -9.487
  H     -156.439      64.862      -7.731
  H     -156.506      63.267      -8.532
  H     -151.236      57.497     -12.987
  H     -151.525      59.082     -13.662
  H     -152.816      58.231     -12.850

 3  4  5  6  7  8  9  10  11  12  13  24  28  29  30  31  32 0
 6-311+G(2d,p)
 ****
 33  34 0
 6-311+G(2d,p)
 ****
 1  2  14  15  16  17  18  19  20  21  22  23  25  26  27 0
 3-21G
 ****
 35  36  37  38  39  40  41  42  43  44  45 0
 3-21G
 ****


