%nproc=1
%NoSave
%Mem=1900MB
#P OB98/GEN NMR

erre ene a

0 1
  C     1107.302    -290.821    -649.298
  O     1106.347    -290.590    -650.329
  P     1104.850    -291.127    -650.077
  C     1103.975    -289.402    -651.827
  O     1104.033    -290.775    -651.409
  C     1103.024    -289.247    -653.008
  O     1103.558    -289.912    -654.165
  C     1101.657    -289.875    -652.778
  O     1100.862    -289.044    -651.953
  C     1101.143    -289.989    -654.216
  O     1100.496    -288.760    -654.648
  C     1102.427    -290.253    -655.014
  N     1102.523    -291.638    -655.499
  C     1101.834    -291.901    -656.696
  O     1101.186    -291.010    -657.249
  N     1101.878    -293.181    -657.191
  C     1102.518    -294.097    -656.567
  N     1102.546    -295.359    -657.101
  C     1103.262    -293.854    -655.294
  C     1103.206    -292.607    -654.812
  O     1104.275    -290.100    -648.987
  O     1104.775    -292.551    -649.611
  H     1099.708    -288.660    -654.076
  H     1103.577    -290.519    -648.448
  H     1103.780    -294.660    -654.807
  H     1103.702    -292.331    -653.913
  H     1102.485    -289.588    -655.880
  H     1100.402    -290.801    -654.325
  H     1101.756    -290.852    -652.330
  H     1102.918    -288.171    -653.243
  H     1102.038    -295.480    -657.969
  H     1104.988    -289.098    -652.145
  H     1103.039    -296.135    -656.694
  H     1103.661    -288.777    -650.974
  P     1099.539    -289.655    -651.303
  C     1099.966    -288.855    -648.903
  O     1099.177    -288.710    -650.090
  O     1100.116    -290.975    -650.555
  O     1098.427    -290.000    -652.262
  H     1099.375    -291.513    -650.211
  H     1099.696    -288.060    -648.210
  H     1101.014    -288.809    -649.147
  H     1099.715    -289.825    -648.411
  H     1108.248    -290.417    -649.591
  H     1107.400    -291.873    -649.132
  H     1106.975    -290.346    -648.396

 3  4  5  6  7  8  9  10  11  12  13  21  23  27  28  29  30  32 0
 6-311+G(2d,p)
 ****
 34  35 0
 6-311+G(2d,p)
 ****
 1  2  14  15  16  17  18  19  20  22  24  25  26 0
 3-21G
 ****
 31  33  36  37  38  39  40  41  42  43  44  45  46 0
 3-21G
 ****


