%nproc=1
%NoSave
%Mem=1900MB
#P OB98/GEN NMR

erre ene a

0 1
  C     -102.629    -125.175     -32.236
  O     -102.277    -123.949     -31.620
  P     -100.761    -123.446     -31.794
  C      -99.638    -124.923     -29.968
  O     -100.046    -123.622     -30.372
  C      -98.740    -124.834     -28.737
  O      -97.519    -124.141     -29.063
  C      -99.342    -124.067     -27.568
  O     -100.318    -124.843     -26.893
  C      -98.088    -123.770     -26.753
  O      -97.701    -124.932     -26.003
  C      -97.052    -123.483     -27.854
  N      -93.711    -119.611     -28.062
  C      -93.564    -120.912     -27.727
  N      -94.505    -121.876     -27.675
  C      -95.706    -121.386     -28.022
  C      -96.013    -120.081     -28.365
  C      -94.949    -119.167     -28.383
  N      -95.105    -117.840     -28.720
  N      -97.358    -119.949     -28.636
  C      -97.853    -121.158     -28.471
  N      -96.892    -122.064     -28.114
  O     -100.917    -121.862     -31.937
  O     -100.030    -124.045     -32.955
  H      -96.793    -124.776     -25.673
  H     -100.242    -121.498     -32.542
  H      -92.554    -121.219     -27.469
  H      -98.893    -121.425     -28.602
  H      -96.063    -123.889     -27.617
  H      -98.221    -122.949     -26.041
  H      -99.792    -123.129     -27.916
  H      -98.483    -125.856     -28.430
  H      -99.078    -125.399     -30.780
  H      -94.322    -117.224     -28.563
  H      -96.046    -117.483     -28.820
  H     -100.527    -125.526     -29.762
  P     -101.610    -124.075     -26.331
  C     -100.771    -123.812     -23.918
  O     -101.661    -124.496     -24.781
  O     -102.798    -124.933     -26.966
  O     -101.640    -122.612     -26.609
  H     -102.671    -125.888     -26.833
  H     -100.946    -124.154     -22.895
  H     -100.948    -122.734     -23.968
  H      -99.737    -124.035     -24.192
  H     -103.659    -125.389     -32.042
  H     -102.021    -125.961     -31.839
  H     -102.473    -125.101     -33.292

 3  4  5  6  7  8  9  10  11  12  22  25  29  30  31  32 0
 6-311+G(2d,p)
 ****
 33  36  37 0
 6-311+G(2d,p)
 ****
 1  2  13  14  15  16  17  18  19  20  21  23  24  26 0
 3-21G
 ****
 27  28  34  35  38  39  40  41  42  43  44  45  46  47  48 0
 3-21G
 ****


