%nproc=1
%NoSave
%Mem=1900MB
#P OB98/GEN NMR

erre ene a

0 1
  C     -511.861    -547.789    -797.010
  O     -512.609    -546.602    -797.168
  H     -511.215    -547.684    -796.134
  H     -511.236    -547.967    -797.893
  H     -512.533    -548.640    -796.855
  P     -513.545    -546.516    -798.474
  C     -512.889    -546.846    -800.974
  O     -512.494    -546.408    -799.684
  C     -512.059    -546.137    -802.048
  O     -510.664    -546.510    -801.936
  C     -512.452    -546.468    -803.477
  O     -513.622    -545.797    -803.917
  C     -511.212    -545.988    -804.206
  O     -511.216    -544.548    -804.264
  C     -510.094    -546.503    -803.270
  N     -509.624    -547.844    -803.637
  C     -508.683    -547.920    -804.677
  O     -508.300    -546.905    -805.239
  N     -508.229    -549.155    -805.072
  C     -508.655    -550.226    -804.467
  N     -508.178    -551.412    -804.904
  C     -509.635    -550.192    -803.365
  C     -510.060    -548.984    -803.001
  O     -514.150    -545.032    -798.394
  O     -514.568    -547.594    -798.622
  H     -510.370    -544.291    -804.676
  H     -514.627    -544.825    -799.233
  H     -509.963    -551.111    -802.896
  H     -510.783    -548.887    -802.190
  H     -509.243    -545.821    -803.263
  H     -511.146    -546.351    -805.238
  H     -512.548    -547.557    -803.625
  H     -512.126    -545.051    -801.863
  H     -507.558    -551.412    -805.706
  H     -513.946    -546.607    -801.115
  H     -508.561    -552.307    -804.602
  H     -512.746    -547.922    -801.065
  P     -514.428    -546.451    -805.145
  C     -513.808    -547.355    -807.497
  O     -513.365    -546.700    -806.315
  O     -515.299    -545.219    -805.691
  O     -515.279    -547.626    -804.783
  H     -516.170    -545.536    -806.023
  H     -512.990    -547.448    -808.181
  H     -514.589    -546.782    -807.951
  H     -514.178    -548.328    -807.248

 6  7  8  9  10  11  12  13  14  15  16  26  30  31  32  33  35 0
 6-311+G(2d,p)
 ****
 37  38 0
 6-311+G(2d,p)
 ****
 1  2  3  4  5  17  18  19  20  21  22  23  24  25 0
 3-21G
 ****
 27  28  29  34  36  39  40  41  42  43  44  45  46 0
 3-21G
 ****


