%nproc=1
%NoSave
%Mem=1900MB
#P OB98/GEN NMR

erre ene a

0 1
  C      197.172    -293.469    -166.956
  O      198.007    -293.094    -165.852
  P      197.969    -291.563    -165.371
  C      195.901    -291.584    -163.784
  O      196.445    -291.181    -165.036
  C      196.442    -290.710    -162.658
  O      195.970    -289.352    -162.774
  C      196.006    -291.169    -161.275
  O      196.769    -292.285    -160.855
  C      196.236    -289.919    -160.434
  O      197.560    -289.878    -159.884
  C      196.027    -288.767    -161.454
  N      194.844    -287.974    -161.176
  C      195.076    -286.641    -160.801
  O      196.224    -286.219    -160.698
  N      193.993    -285.842    -160.531
  C      192.785    -286.333    -160.595
  N      191.763    -285.490    -160.307
  C      192.505    -287.726    -160.966
  C      193.574    -288.490    -161.236
  O      198.269    -290.753    -166.714
  O      198.958    -291.246    -164.301
  H      197.559    -289.142    -159.242
  H      198.756    -289.938    -166.511
  H      191.490    -288.100    -160.998
  H      193.457    -289.535    -161.517
  H      196.899    -288.099    -161.452
  H      195.538    -289.868    -159.592
  H      194.931    -291.415    -161.285
  H      197.539    -290.708    -162.722
  H      191.996    -284.538    -160.061
  H      196.130    -292.636    -163.588
  H      190.787    -285.772    -160.322
  H      194.798    -291.508    -163.850
  P      196.606    -292.777    -159.345
  C      195.129    -294.764    -160.059
  O      195.197    -293.563    -159.316
  O      196.227    -291.418    -158.585
  O      197.761    -293.474    -158.718
  H      196.194    -291.567    -157.621
  H      194.211    -295.302    -159.792
  H      195.992    -295.411    -159.820
  H      195.110    -294.546    -161.133
  H      197.301    -294.511    -167.163
  H      197.444    -292.898    -167.819
  H      196.148    -293.278    -166.710

 3  4  5  6  7  8  9  10  11  12  13  21  23  27  28  29  30  32 0
 6-311+G(2d,p)
 ****
 34  35 0
 6-311+G(2d,p)
 ****
 1  2  14  15  16  17  18  19  20  22  24  25  26 0
 3-21G
 ****
 31  33  36  37  38  39  40  41  42  43  44  45  46 0
 3-21G
 ****


