%nproc=1
%NoSave
%Mem=1900MB
#P OB98/GEN NMR

erre ene a

0 1
  C       21.907     -25.663      -2.315
  O       20.854     -24.843      -2.784
  H       22.597     -25.045      -1.734
  H       22.453     -26.103      -3.154
  H       21.516     -26.452      -1.668
  P       19.724     -25.506      -3.704
  C       21.218     -24.933      -5.732
  O       20.452     -25.931      -5.068
  C       21.077     -25.076      -7.244
  O       21.474     -26.395      -7.665
  C       19.655     -24.869      -7.765
  O       19.364     -23.488      -7.889
  C       19.747     -25.570      -9.109
  O       20.442     -24.725     -10.049
  C       20.614     -26.796      -8.767
  N       17.191     -30.268     -10.170
  C       17.601     -29.119     -10.816
  N       16.992     -28.840     -11.988
  N       18.518     -28.311     -10.350
  C       18.989     -28.678      -9.137
  C       18.649     -29.783      -8.391
  C       17.681     -30.705      -8.949
  O       17.308     -31.748      -8.419
  N       19.268     -29.774      -7.167
  C       20.024     -28.693      -7.196
  N       19.884     -27.986      -8.368
  O       18.481     -24.693      -3.907
  O       19.416     -26.909      -3.002
  H       20.434     -25.185     -10.908
  H       18.680     -26.831      -2.367
  H       16.475     -30.849     -10.573
  H       20.690     -28.378      -6.403
  H       21.263     -27.087      -9.601
  H       18.770     -25.794      -9.539
  H       16.180     -29.338     -12.322
  H       18.920     -25.390      -7.142
  H       17.238     -27.971     -12.446
  H       21.772     -24.367      -7.714
  H       22.262     -25.065      -5.431
  H       20.891     -23.935      -5.425
  P       17.881     -22.917      -7.651
  C       17.712     -22.512     -10.201
  O       17.125     -23.102      -9.053
  O       17.824     -21.538      -7.091
  O       17.173     -24.023      -6.744
  H       17.351     -23.902      -5.778
  H       17.103     -22.715     -11.057
  H       18.689     -22.921     -10.352
  H       17.787     -21.454     -10.060

 6  7  8  9  10  11  12  13  14  15  26  29  33  34 0
 6-311+G(2d,p)
 ****
 36  38  39  40  41 0
 6-311+G(2d,p)
 ****
 1  2  3  4  5  16  17  18  19  20  21  22  23  24  25 0
 3-21G
 ****
 27  28  30  31  32  35  37  42  43  44  45  46  47 0
 3-21G
 ****
 48  49 0
 3-21G
 ****


