%nproc=1
%NoSave
%Mem=1900MB
#P OB98/GEN NMR

erre ene a

0 1
  C       14.295    -173.635    -113.518
  O       14.522    -173.153    -112.211
  H       14.313    -172.788    -114.210
  H       13.314    -174.113    -113.581
  H       15.074    -174.343    -113.812
  P       14.677    -174.208    -111.013
  C       13.129    -175.846    -109.764
  O       13.259    -174.939    -110.852
  C       11.789    -176.573    -109.852
  O       11.681    -177.275    -111.110
  C       11.587    -177.628    -108.768
  O       11.281    -177.024    -107.528
  C       10.466    -178.448    -109.386
  O        9.194    -177.804    -109.206
  C       10.866    -178.448    -110.879
  N       11.571    -179.667    -111.278
  C       10.934    -180.868    -110.991
  O        9.841    -180.935    -110.433
  N       11.621    -182.006    -111.330
  C       12.890    -182.050    -111.832
  O       13.546    -183.082    -111.915
  C       13.482    -180.752    -112.185
  C       12.815    -179.635    -111.883
  O       15.261    -173.673    -109.749
  O       15.600    -175.358    -111.644
  H       16.519    -175.243    -111.329
  H        8.513    -178.462    -109.450
  H       11.187    -182.882    -111.082
  H       14.464    -180.746    -112.644
  H       13.246    -178.667    -112.106
  H        9.977    -178.346    -111.516
  H       10.384    -179.443    -108.943
  H       12.480    -178.257    -108.685
  H       10.989    -175.820    -109.816
  H       13.174    -175.277    -108.828
  H       13.959    -176.558    -109.789
  P       11.425    -177.832    -106.153
  C       10.459    -179.964    -105.109
  O       10.327    -178.998    -106.143
  O       11.444    -176.988    -104.923
  O       12.802    -178.638    -106.317
  H       13.374    -178.448    -105.547
  H        9.678    -180.690    -105.198
  H       10.389    -179.480    -104.157
  H       11.409    -180.449    -105.193

 6  7  8  9  10  11  12  13  14  15  16  27  31  32  33  34  35 0
 6-311+G(2d,p)
 ****
 36  37 0
 6-311+G(2d,p)
 ****
 1  2  3  4  5  17  18  19  20  21  22  23  24  25 0
 3-21G
 ****
 26  28  29  30  38  39  40  41  42  43  44  45 0
 3-21G
 ****


