%nproc=1
%NoSave
%Mem=1900MB
#P OB98/GEN NMR

erre ene a

0 1
  C      311.944    -310.462    -245.728
  O      312.435    -311.782    -245.585
  H      312.625    -309.775    -245.221
  H      310.955    -310.381    -245.272
  H      311.888    -310.185    -246.788
  P      311.724    -312.932    -246.444
  C      313.732    -314.081    -247.639
  O      312.789    -314.132    -246.576
  C      314.809    -315.150    -247.435
  O      315.792    -314.635    -246.480
  C      314.279    -316.474    -246.867
  O      315.029    -317.550    -247.453
  C      314.615    -316.385    -245.389
  O      314.713    -317.645    -244.737
  C      315.948    -315.627    -245.449
  N      316.298    -315.004    -244.167
  C      317.460    -315.442    -243.537
  O      318.259    -316.251    -244.013
  N      317.692    -314.906    -242.292
  C      316.888    -314.025    -241.627
  O      317.139    -313.598    -240.501
  C      315.670    -313.606    -242.341
  C      315.433    -314.109    -243.555
  O      311.685    -312.309    -247.917
  O      310.372    -313.354    -245.967
  H      310.862    -311.798    -248.054
  H      313.861    -318.114    -244.880
  H      318.531    -315.217    -241.820
  H      315.006    -312.914    -241.840
  H      314.532    -313.837    -244.104
  H      316.758    -316.301    -245.755
  H      313.854    -315.788    -244.867
  H      313.208    -316.638    -247.036
  H      315.335    -315.308    -248.382
  H      314.200    -313.096    -247.662
  H      313.212    -314.247    -248.592
  P      314.202    -318.726    -248.167
  C      314.684    -318.170    -250.692
  O      314.953    -318.998    -249.560
  O      312.858    -317.953    -248.585
  O      314.003    -319.921    -247.290
  H      313.023    -317.023    -248.838
  H      315.272    -318.500    -251.523
  H      314.933    -317.156    -250.459
  H      313.646    -318.234    -250.942

 6  7  8  9  10  11  12  13  14  15  16  27  31  32  33  34  35 0
 6-311+G(2d,p)
 ****
 36  37 0
 6-311+G(2d,p)
 ****
 1  2  3  4  5  17  18  19  20  21  22  23  24  25 0
 3-21G
 ****
 26  28  29  30  38  39  40  41  42  43  44  45 0
 3-21G
 ****


