%nproc=1
%NoSave
%Mem=1900MB
#P OB98/GEN NMR

erre ene a

0 1
  C     -331.529      72.605      11.708
  O     -330.196      72.945      11.366
  P     -329.953      74.260      10.483
  C     -330.269      76.106      12.281
  O     -330.801      75.458      11.132
  C     -330.437      77.622      12.174
  O     -329.782      78.101      10.968
  C     -331.897      78.077      12.111
  O     -332.030      79.345      12.772
  C     -332.129      78.310      10.633
  O     -333.211      79.213      10.409
  C     -330.762      78.840      10.206
  N     -329.297      81.228       6.001
  C     -329.159      81.611       7.321
  N     -328.635      82.835       7.541
  N     -329.496      80.857       8.334
  C     -330.011      79.656       7.962
  C     -330.181      79.160       6.688
  C     -329.815      80.008       5.578
  O     -329.938      79.742       4.387
  N     -330.701      77.895       6.713
  C     -330.884      77.637       7.992
  N     -330.514      78.690       8.788
  O     -330.744      73.930       9.130
  O     -328.521      74.564      10.202
  H     -333.040      80.003      10.961
  H     -330.112      73.714       8.420
  H     -329.031      81.851       5.255
  H     -331.303      76.721       8.395
  H     -330.644      79.898      10.459
  H     -332.369      77.362      10.136
  H     -328.417      83.489       6.802
  H     -332.613      77.367      12.540
  H     -328.566      83.157       8.496
  H     -329.921      78.090      13.023
  H     -329.207      75.868      12.365
  H     -330.773      75.735      13.177
  P     -333.418      79.592      13.541
  C     -332.505      79.311      15.962
  O     -333.303      78.787      14.920
  O     -334.470      78.740      12.691
  O     -333.806      81.030      13.654
  H     -335.366      79.111      12.796
  H     -333.144      79.534      16.821
  H     -331.975      80.222      15.666
  H     -331.766      78.555      16.254
  H     -331.530      71.710      12.294
  H     -332.097      72.447      10.815
  H     -331.967      73.402      12.273

 3  4  5  6  7  8  9  10  11  12  23  26  30  31 0
 6-311+G(2d,p)
 ****
 33  35  36  37  38 0
 6-311+G(2d,p)
 ****
 1  2  13  14  15  16  17  18  19  20  21  22  24  25 0
 3-21G
 ****
 27  28  29  32  34  39  40  41  42  43  44  45  46  47  48  49 0
 3-21G
 ****


