%nproc=1
%NoSave
%Mem=1900MB
#P OB98/GEN NMR

erre ene a

0 1
  C       55.750    -273.743     -31.159
  O       56.308    -272.427     -31.054
  P       55.724    -271.156     -31.843
  C       56.664    -269.200     -30.450
  O       56.731    -269.917     -31.676
  C       57.651    -269.748     -29.415
  O       59.001    -269.772     -29.972
  C       57.712    -268.942     -28.104
  O       57.860    -269.892     -27.045
  C       58.976    -268.120     -28.299
  O       59.506    -267.595     -27.095
  C       59.862    -269.164     -28.985
  N       61.075    -268.646     -29.610
  C       62.290    -268.866     -28.951
  O       62.338    -269.425     -27.857
  N       63.448    -268.423     -29.547
  C       63.401    -267.811     -30.687
  N       64.584    -267.408     -31.225
  C       62.143    -267.540     -31.404
  C       61.033    -267.983     -30.815
  O       54.312    -270.825     -31.483
  O       55.834    -271.531     -33.396
  H       55.068    -271.155     -33.871
  H       58.824    -267.028     -26.689
  H       62.150    -267.032     -32.357
  H       60.068    -267.848     -31.294
  H       60.127    -269.946     -28.265
  H       58.750    -267.277     -28.958
  H       56.815    -268.343     -27.918
  H       57.380    -270.790     -29.207
  H       65.429    -267.620     -30.708
  H       55.649    -269.289     -30.052
  H       64.664    -266.930     -32.110
  H       56.865    -268.140     -30.645
  P       56.581    -270.314     -26.174
  C       57.672    -272.408     -25.072
  O       57.111    -271.123     -24.895
  O       55.949    -271.490     -27.066
  O       55.564    -269.248     -25.932
  H       54.995    -271.555     -26.878
  H       58.581    -272.479     -24.469
  H       57.929    -272.609     -26.115
  H       56.959    -273.160     -24.728
  H       56.308    -274.417     -30.544
  H       55.795    -274.069     -32.177
  H       54.730    -273.725     -30.835

 3  4  5  6  7  8  9  10  11  12  13  24  27  28  29  30  32 0
 6-311+G(2d,p)
 ****
 34  35 0
 6-311+G(2d,p)
 ****
 1  2  14  15  16  17  18  19  20  21  22  23  25  26 0
 3-21G
 ****
 31  33  36  37  38  39  40  41  42  43  44  45  46 0
 3-21G
 ****


