%nproc=1
%NoSave
%Mem=1900MB
#P OB98/GEN NMR

erre ene a

0 1
  C       31.443     451.662    -396.659
  O       32.223     450.848    -397.515
  H       31.293     452.630    -397.140
  H       31.971     451.816    -395.712
  H       30.469     451.199    -396.477
  P       32.413     449.314    -397.077
  C       31.565     447.826    -399.066
  O       31.272     448.497    -397.856
  C       30.733     448.395    -400.216
  O       31.054     449.802    -400.366
  C       30.989     447.708    -401.562
  O       29.754     447.666    -402.286
  C       31.949     448.657    -402.261
  O       31.914     448.505    -403.678
  C       31.464     450.019    -401.738
  N       32.493     451.049    -401.835
  C       32.168     452.192    -402.570
  O       31.064     452.288    -403.110
  N       33.106     453.182    -402.718
  C       34.295     453.015    -402.228
  N       35.192     454.016    -402.423
  C       34.700     451.802    -401.480
  C       33.756     450.877    -401.321
  O       31.894     449.339    -395.562
  O       33.798     448.792    -397.245
  H       32.287     449.318    -404.087
  H       31.073     449.845    -395.443
  H       35.707     451.705    -401.100
  H       33.963     449.962    -400.777
  H       30.581     450.353    -402.297
  H       32.977     448.462    -401.927
  H       31.386     446.702    -401.453
  H       29.674     448.339    -399.941
  H       34.879     454.818    -402.958
  H       31.357     446.753    -398.966
  H       36.157     453.972    -402.137
  H       32.633     447.946    -399.273
  P       28.837     446.360    -402.200
  C       26.443     447.274    -402.558
  O       27.392     446.759    -401.632
  O       29.461     445.163    -401.561
  O       28.520     446.053    -403.748
  H       28.568     445.089    -403.877
  H       25.530     447.496    -402.046
  H       26.257     446.546    -403.320
  H       26.828     448.167    -403.004

 6  7  8  9  10  11  12  13  14  15  16  26  30  31  32  33  35 0
 6-311+G(2d,p)
 ****
 37  38 0
 6-311+G(2d,p)
 ****
 1  2  3  4  5  17  18  19  20  21  22  23  24  25 0
 3-21G
 ****
 27  28  29  34  36  39  40  41  42  43  44  45  46 0
 3-21G
 ****


