%nproc=1
%NoSave
%Mem=1900MB
#P OB98/GEN NMR

erre ene a

0 1
  C     -899.260    -952.675    -440.119
  O     -898.610    -951.894    -441.101
  H     -900.000    -953.304    -440.609
  H     -899.770    -952.020    -439.401
  H     -898.550    -953.317    -439.591
  P     -897.330    -951.026    -440.680
  C     -895.500    -951.793    -442.335
  O     -896.030    -951.919    -441.019
  C     -893.980    -951.845    -442.290
  O     -893.480    -950.688    -441.573
  C     -893.410    -953.057    -441.570
  O     -893.490    -954.206    -442.379
  C     -892.000    -952.576    -441.276
  O     -891.160    -952.715    -442.437
  C     -892.230    -951.083    -440.941
  N     -892.280    -950.828    -439.497
  C     -891.170    -951.231    -438.768
  O     -890.210    -951.819    -439.274
  N     -891.200    -950.953    -437.418
  C     -892.240    -950.410    -436.750
  O     -892.240    -950.232    -435.527
  C     -893.400    -950.029    -437.570
  C     -893.360    -950.237    -438.878
  O     -897.360    -950.458    -439.300
  O     -897.270    -949.877    -441.791
  H     -890.300    -952.317    -442.205
  H     -897.650    -949.049    -441.427
  H     -890.400    -951.263    -436.882
  H     -894.260    -949.584    -437.055
  H     -894.210    -949.977    -439.500
  H     -891.450    -950.468    -441.374
  H     -891.510    -953.148    -440.478
  H     -893.930    -953.204    -440.613
  H     -893.600    -951.782    -443.325
  H     -895.830    -950.845    -442.767
  H     -895.900    -952.617    -442.943
  P     -893.210    -955.659    -441.769
  C     -895.540    -956.169    -440.822
  O     -894.190    -955.863    -440.515
  O     -891.780    -955.973    -441.502
  O     -893.820    -956.666    -442.857
  H     -893.100    -957.093    -443.358
  H     -896.095    -956.282    -439.914
  H     -895.581    -957.080    -441.381
  H     -895.963    -955.375    -441.402

 6  7  8  9  10  11  12  13  14  15  16  26  31  32  33  34  35 0
 6-311+G(2d,p)
 ****
 36  37 0
 6-311+G(2d,p)
 ****
 1  2  3  4  5  17  18  19  20  21  22  23  24  25 0
 3-21G
 ****
 27  28  29  30  38  39  40  41  42  43  44  45 0
 3-21G
 ****


