%nproc=1
%NoSave
%Mem=1900MB
#P OB98/GEN NMR

erre ene a

0 1
  C     -216.927     335.550     210.811
  O     -218.260     335.651     211.318
  P     -218.928     337.109     211.398
  C     -220.105     336.571     213.657
  O     -220.242     337.009     212.314
  C     -221.448     336.653     214.381
  O     -221.969     338.002     214.391
  C     -222.533     335.792     213.756
  O     -222.454     334.440     214.190
  C     -223.789     336.440     214.330
  O     -224.007     335.977     215.670
  C     -223.414     337.927     214.324
  N     -227.517     339.514     211.823
  C     -227.413     338.836     213.025
  N     -228.568     338.541     213.654
  N     -226.277     338.473     213.556
  C     -225.195     338.850     212.824
  C     -225.173     339.520     211.623
  C     -226.444     339.898     211.037
  O     -226.598     340.487     209.976
  N     -223.892     339.716     211.182
  C     -223.137     339.181     212.125
  N     -223.880     338.626     213.142
  O     -219.533     337.301     209.928
  O     -217.973     338.203     211.749
  H     -223.163     336.091     216.150
  H     -219.566     338.253     209.708
  H     -228.419     339.757     211.456
  H     -222.053     339.171     212.128
  H     -223.816     338.463     215.192
  H     -224.685     336.185     213.760
  H     -229.476     338.831     213.328
  H     -222.532     335.882     212.664
  H     -228.511     338.072     214.552
  H     -221.295     336.331     215.427
  H     -219.360     337.178     214.184
  H     -219.703     335.548     213.662
  P     -222.037     333.334     213.108
  C     -223.202     331.214     214.049
  O     -222.003     331.936     213.894
  O     -220.497     333.666     212.835
  O     -222.842     333.353     211.849
  H     -220.261     333.439     211.910
  H     -222.966     330.227     214.459
  H     -223.700     331.082     213.085
  H     -223.870     331.731     214.744
  H     -216.619     334.525     210.818
  H     -216.267     336.125     211.426
  H     -216.897     335.925     209.809

 3  4  5  6  7  8  9  10  11  12  23  26  30  31 0
 6-311+G(2d,p)
 ****
 33  35  36  37  38 0
 6-311+G(2d,p)
 ****
 1  2  13  14  15  16  17  18  19  20  21  22  24  25 0
 3-21G
 ****
 27  28  29  32  34  39  40  41  42  43  44  45  46  47  48  49 0
 3-21G
 ****


