%nproc=1
%NoSave
%Mem=1900MB
#P OB98/GEN NMR

erre ene a

0 1
  C       -7.815     -87.624     370.252
  O       -7.173     -88.899     370.322
  P       -5.977     -89.377     369.381
  C       -7.190     -90.561     367.369
  O       -6.503     -89.422     367.873
  C       -6.885     -90.776     365.877
  O       -7.672     -91.908     365.397
  C       -7.265     -89.562     365.017
  O       -6.302     -89.247     364.014
  C       -8.670     -89.909     364.550
  O       -9.076     -89.177     363.401
  C       -8.586     -91.427     364.386
  N      -13.118     -92.363     362.231
  C      -12.123     -91.491     361.829
  N      -12.364     -90.760     360.725
  N      -10.995     -91.339     362.472
  C      -10.912     -92.071     363.604
  C      -11.835     -92.957     364.109
  C      -13.061     -93.160     363.368
  O      -13.962     -93.930     363.661
  N      -11.394     -93.524     365.281
  C      -10.219     -92.970     365.490
  N       -9.877     -92.083     364.494
  O       -5.203     -90.562     369.862
  O       -4.971     -88.117     369.370
  H       -9.896     -89.581     363.066
  H       -4.069     -88.481     369.281
  H      -13.955     -92.460     361.685
  H       -9.567     -93.179     366.333
  H       -8.186     -91.710     363.409
  H       -9.364     -89.650     365.359
  H      -13.258     -90.736     360.254
  H       -7.302     -88.651     365.625
  H      -11.735     -89.970     360.567
  H       -5.823     -91.031     365.767
  H       -8.256     -90.349     367.502
  H       -6.946     -91.449     367.954
  P       -4.979     -88.367     364.142
  C       -6.137     -86.080     364.225
  O       -5.341     -87.014     364.929
  O       -4.677     -87.849     362.659
  O       -3.793     -89.098     364.682
  H       -3.810     -88.188     362.362
  H       -6.089     -85.121     364.746
  H       -7.181     -86.420     364.211
  H       -5.776     -85.952     363.200
  H       -8.581     -87.569     370.997
  H       -8.250     -87.496     369.283
  H       -7.094     -86.852     370.424

 3  4  5  6  7  8  9  10  11  12  23  26  30  31 0
 6-311+G(2d,p)
 ****
 33  35  36  37  38 0
 6-311+G(2d,p)
 ****
 1  2  13  14  15  16  17  18  19  20  21  22  24  25 0
 3-21G
 ****
 27  28  29  32  34  39  40  41  42  43  44  45  46  47  48  49 0
 3-21G
 ****


