%nproc=1
%NoSave
%Mem=1900MB
#P OB98/GEN NMR

erre ene a

0 1
  C      -35.701     331.385     821.372
  O      -34.374     331.540     820.894
  P      -33.382     330.300     820.724
  C      -34.358     329.877     818.337
  O      -33.179     330.039     819.141
  C      -34.279     330.646     817.008
  O      -34.404     332.062     817.248
  C      -32.897     330.442     816.365
  O      -32.648     329.294     815.579
  C      -32.589     331.776     815.663
  O      -32.884     331.735     814.280
  C      -33.501     332.763     816.394
  N      -30.962     337.169     816.289
  C      -31.800     336.618     815.332
  N      -31.804     337.240     814.139
  N      -32.537     335.561     815.529
  C      -32.340     334.998     816.751
  C      -31.561     335.443     817.800
  C      -30.789     336.651     817.560
  O      -29.959     337.115     818.363
  N      -31.561     334.586     818.857
  C      -32.316     333.579     818.456
  N      -32.794     333.765     817.178
  O      -33.588     329.132     821.624
  O      -31.964     330.973     821.129
  H      -32.543     332.544     813.854
  H      -31.425     330.300     821.574
  H      -30.372     337.932     816.042
  H      -32.529     332.687     819.031
  H      -34.125     333.310     815.672
  H      -31.529     332.005     815.743
  H      -31.134     337.971     813.894
  H      -32.166     330.379     817.180
  H      -32.282     336.769     813.358
  H      -35.116     330.390     816.346
  H      -35.208     330.229     818.947
  H      -34.513     328.825     818.136
  P      -31.204     328.716     815.160
  C      -31.205     326.885     816.969
  O      -31.143     327.174     815.569
  O      -30.188     329.412     816.217
  O      -30.788     329.021     813.757
  H      -29.282     329.409     815.849
  H      -30.852     325.880     817.140
  H      -32.235     326.977     817.308
  H      -30.579     327.582     817.532
  H      -36.182     332.340     821.405
  H      -35.679     330.962     822.355
  H      -36.243     330.736     820.716

 3  4  5  6  7  8  9  10  11  12  23  26  30  31 0
 6-311+G(2d,p)
 ****
 33  35  36  37  38 0
 6-311+G(2d,p)
 ****
 1  2  13  14  15  16  17  18  19  20  21  22  24  25 0
 3-21G
 ****
 27  28  29  32  34  39  40  41  42  43  44  45  46  47  48  49 0
 3-21G
 ****


