%nproc=1
%NoSave
%Mem=1900MB
#P OB98/GEN NMR

erre ene a

0 1
  C     -139.202     152.094     -94.584
  O     -138.482     152.849     -93.622
  P     -138.613     154.447     -93.679
  C     -140.725     154.490     -92.187
  O     -140.167     154.785     -93.461
  C     -141.793     155.511     -91.812
  O     -142.494     155.044     -90.627
  C     -141.246     156.913     -91.502
  O     -142.091     157.896     -92.117
  C     -141.417     157.037     -89.999
  O     -141.525     158.394     -89.583
  C     -142.683     156.205     -89.794
  N     -145.711     156.943     -85.821
  C     -145.885     157.305     -87.142
  N     -146.999     158.013     -87.430
  N     -145.043     157.005     -88.095
  C     -143.990     156.266     -87.667
  C     -143.713     155.839     -86.388
  C     -144.623     156.231     -85.335
  O     -144.478     156.019     -84.132
  N     -142.560     155.097     -86.350
  C     -142.137     155.078     -87.599
  N     -142.946     155.815     -88.428
  O     -138.366     154.770     -95.226
  O     -137.660     155.195     -92.812
  H     -140.711     158.847     -89.872
  H     -137.630     155.405     -95.319
  H     -146.382     157.217     -85.125
  H     -141.241     154.576     -87.943
  H     -143.563     156.749     -90.161
  H     -140.552     156.586     -89.500
  H     -147.705     158.248     -86.752
  H     -140.210     157.070     -91.815
  H     -147.155     158.269     -88.397
  H     -142.533     155.555     -92.622
  H     -139.931     154.509     -91.434
  H     -141.159     153.486     -92.215
  P     -141.493     159.385     -92.198
  C     -141.580     159.650     -94.787
  O     -140.784     159.494     -93.628
  O     -140.271     159.349     -91.166
  O     -142.484     160.453     -91.874
  H     -140.076     160.246     -90.837
  H     -142.629     159.844     -94.543
  H     -141.520     158.738     -95.385
  H     -141.193     160.487     -95.373
  H     -139.022     151.051     -94.427
  H     -138.879     152.368     -95.567
  H     -140.248     152.294     -94.484

 3  4  5  6  7  8  9  10  11  12  23  26  30  31  33  0
 6-311+G(2d,p)
 ****
 35  36  37  38 0
 6-311+G(2d,p)
 ****
 1  2  13  14  15  16  17  18  19  20  21  22  24  25  27  28  29 0
 3-21G
 ****
 32  34  39  40  41  42  43  44  45  46  47  48  49 0
 3-21G
 ****


