%nproc=1
%NoSave
%Mem=1900MB
#P OB98/GEN NMR

erre ene a

0 1
  C       42.719     178.608     388.689
  O       43.032     177.574     387.748
  P       42.262     176.169     387.737
  C       41.830     176.118     385.192
  O       42.465     175.479     386.297
  C       42.637     175.951     383.905
  O       43.740     176.877     383.861
  C       43.248     174.566     383.713
  O       42.273     173.647     383.265
  C       44.362     174.855     382.716
  O       43.840     174.927     381.380
  C       44.841     176.245     383.175
  N       49.951     176.406     383.305
  C       49.070     176.521     382.287
  N       47.722     176.464     382.337
  C       47.295     176.285     383.601
  C       48.080     176.147     384.735
  C       49.476     176.211     384.553
  N       50.368     176.076     385.590
  N       47.291     175.951     385.852
  C       46.052     175.996     385.392
  N       46.000     176.196     384.043
  O       40.832     176.248     388.178
  O       43.102     175.227     388.720
  H       43.617     174.022     381.099
  H       42.518     174.556     389.116
  H       49.506     176.679     381.304
  H       45.161     175.889     386.007
  H       45.089     176.888     382.329
  H       45.151     174.100     382.721
  H       43.688     174.213     384.657
  H       41.972     176.191     383.058
  H       41.727     177.187     385.424
  H       51.354     176.099     385.374
  H       50.021     175.884     386.518
  H       40.827     175.693     385.068
  P       41.467     172.738     384.312
  C       39.040     172.922     383.502
  O       40.203     172.126     383.541
  O       41.148     173.394     385.619
  O       42.411     171.464     384.522
  H       42.280     171.110     385.420
  H       38.501     172.822     384.451
  H       38.395     172.566     382.687
  H       39.285     173.970     383.330
  H       43.352     179.453     388.515
  H       42.875     178.245     389.683
  H       41.696     178.899     388.572

 3  4  5  6  7  8  9  10  11  12  22  25  29  30  31  32 0
 6-311+G(2d,p)
 ****
 33  36  37 0
 6-311+G(2d,p)
 ****
 1  2  13  14  15  16  17  18  19  20  21  23  24  26 0
 3-21G
 ****
 27  28  34  35  38  39  40  41  42  43  44  45  46  47  48 0
 3-21G
 ****


