%nproc=1
%NoSave
%Mem=1900MB
#P OB98/GEN NMR

erre ene a

0 1
  C      329.624    -234.713    -180.609
  O      328.673    -233.959    -179.878
  H      329.707    -234.288    -181.614
  H      329.302    -235.756    -180.693
  H      330.601    -234.659    -180.119
  P      328.369    -234.447    -178.380
  C      327.088    -236.443    -177.375
  O      327.442    -235.748    -178.563
  C      326.137    -237.602    -177.693
  O      324.814    -237.052    -177.938
  C      326.545    -238.400    -178.933
  O      326.266    -239.787    -178.713
  C      325.625    -237.867    -180.021
  O      325.418    -238.815    -181.067
  C      324.367    -237.521    -179.223
  N      321.217    -236.625    -183.135
  C      321.735    -237.768    -182.641
  N      322.561    -237.917    -181.575
  C      322.794    -236.732    -180.985
  C      322.336    -235.484    -181.381
  C      321.510    -235.454    -182.518
  N      320.992    -234.290    -183.047
  N      322.832    -234.502    -180.547
  C      323.564    -235.147    -179.651
  N      323.585    -236.495    -179.888
  O      327.835    -233.402    -177.456
  O      329.776    -235.084    -177.956
  H      325.038    -239.632    -180.674
  H      330.149    -235.633    -178.670
  H      321.462    -238.681    -183.165
  H      324.107    -234.682    -178.829
  H      323.712    -238.390    -179.075
  H      326.065    -236.964    -180.464
  H      327.597    -238.269    -179.188
  H      326.057    -238.244    -176.811
  H      326.612    -235.760    -176.664
  H      320.397    -234.361    -183.858
  H      321.190    -233.412    -182.590
  H      328.011    -236.830    -176.922
  P      327.490    -240.756    -178.333
  C      329.345    -242.022    -179.609
  O      328.422    -240.937    -179.628
  O      327.124    -242.018    -177.627
  O      328.396    -239.821    -177.394
  H      328.778    -240.364    -176.674
  H      329.902    -242.033    -180.523
  H      328.810    -242.943    -179.506
  H      330.016    -241.905    -178.784

 6  7  8  9  10  11  12  13  14  15  25  28  32  33  34  35 0
 6-311+G(2d,p)
 ****
 36  39  40 0
 6-311+G(2d,p)
 ****
 1  2  3  4  5  16  17  18  19  20  21  22  23  24 0
 3-21G
 ****
 26  27  29  30  31  37  38  41  42  43  44  45  46  47 0
 3-21G
 ****
 48 0
 3-21G
 ****


