%nproc=1
%NoSave
%Mem=1900MB
#P OB98/GEN NMR

erre ene a

0 1
  C      418.365      50.522    -349.012
  O      419.324      49.602    -348.471
  P      418.911      48.689    -347.214
  C      419.708      46.320    -347.972
  O      419.888      47.424    -347.096
  C      420.668      46.396    -349.166
  O      422.045      46.474    -348.698
  C      420.590      45.199    -350.123
  O      420.871      45.693    -351.442
  C      421.727      44.318    -349.636
  O      422.156      43.371    -350.608
  C      422.773      45.387    -349.304
  N      423.844      44.922    -348.418
  C      425.094      45.522    -348.542
  O      425.377      46.370    -349.384
  N      426.054      45.083    -347.666
  C      425.901      44.103    -346.727
  O      426.810      43.735    -345.992
  C      424.569      43.487    -346.660
  C      423.621      43.919    -347.496
  O      417.547      48.018    -347.725
  O      418.673      49.429    -345.937
  H      422.888      42.862    -350.214
  H      416.874      48.067    -347.024
  H      426.961      45.516    -347.730
  H      424.407      42.710    -345.929
  H      422.627      43.485    -347.457
  H      423.211      45.775    -350.227
  H      421.406      43.764    -348.750
  H      419.616      44.698    -350.103
  H      420.465      47.328    -349.706
  H      418.677      46.322    -348.342
  H      419.868      45.392    -347.413
  P      419.671      45.749    -352.508
  C      420.150      48.078    -353.596
  O      420.159      46.674    -353.718
  O      418.634      46.689    -351.722
  O      419.098      44.419    -352.869
  H      419.066      47.464    -351.322
  H      420.492      48.397    -352.607
  H      419.140      48.455    -353.766
  H      420.817      48.500    -354.351
  H      418.800      51.046    -349.838
  H      418.077      51.223    -348.256
  H      417.503      49.983    -349.346

 3  4  5  6  7  8  9  10  11  12  13  23  28  29  30  31  32 0
 6-311+G(2d,p)
 ****
 33  34 0
 6-311+G(2d,p)
 ****
 1  2  14  15  16  17  18  19  20  21  22  24  25  26 0
 3-21G
 ****
 27  35  36  37  38  39  40  41  42  43  44  45 0
 3-21G
 ****


