%nproc=1
%NoSave
%Mem=1900MB
#P OB98/GEN NMR

erre ene a

0 1
  C     -213.822     374.228     663.644
  O     -213.226     373.005     663.251
  H     -213.648     374.371     664.716
  H     -214.903     374.210     663.462
  H     -213.366     375.058     663.098
  P     -213.471     372.467     661.760
  C     -215.553     371.104     662.452
  O     -215.048     372.170     661.638
  C     -217.033     370.837     662.127
  O     -217.441     369.629     662.820
  C     -217.966     371.981     662.570
  O     -219.005     372.112     661.592
  C     -218.537     371.465     663.875
  O     -219.774     372.067     664.189
  C     -218.588     369.943     663.629
  N     -218.586     369.203     664.892
  C     -219.834     368.773     665.359
  O     -220.856     368.997     664.706
  N     -219.919     368.142     666.569
  C     -218.844     368.012     667.300
  N     -218.995     367.422     668.515
  C     -217.513     368.487     666.862
  C     -217.451     369.071     665.661
  O     -212.585     371.357     661.306
  O     -213.283     373.778     660.855
  H     -220.130     371.657     665.003
  H     -212.355     373.856     660.570
  H     -216.644     368.358     667.509
  H     -216.515     369.449     665.270
  H     -219.487     369.680     663.061
  H     -217.832     371.689     664.699
  H     -217.450     372.939     662.697
  H     -217.125     370.648     661.053
  H     -219.919     367.137     668.781
  H     -215.455     371.412     663.497
  H     -218.230     367.291     669.182
  H     -214.966     370.201     662.277
  P     -219.023     373.368     660.590
  C     -220.384     374.889     662.139
  O     -219.148     374.728     661.442
  O     -219.998     373.250     659.461
  O     -217.521     373.429     660.020
  H     -217.532     373.791     659.119
  H     -220.374     375.816     662.673
  H     -220.512     374.081     662.829
  H     -221.192     374.890     661.437

 6  7  8  9  10  11  12  13  14  15  16  26  30  31  32  33  35 0
 6-311+G(2d,p)
 ****
 37  38 0
 6-311+G(2d,p)
 ****
 1  2  3  4  5  17  18  19  20  21  22  23  24  25 0
 3-21G
 ****
 27  28  29  34  36  39  40  41  42  43  44  45  46 0
 3-21G
 ****


