%nproc=1
%NoSave
%Mem=1900MB
#P OB98/GEN NMR

erre ene a

0 1
  C      191.054     189.346     237.217
  O      192.260     188.964     237.853
  P      192.174     188.169     239.245
  C      193.157     190.078     240.764
  O      192.045     189.279     240.396
  C      193.368     190.031     242.282
  O      192.178     190.558     242.938
  C      193.619     188.625     242.844
  O      194.540     188.767     243.936
  C      192.250     188.220     243.361
  O      192.315     187.198     244.345
  C      191.724     189.564     243.878
  N      190.269     189.609     244.011
  C      189.696     188.982     245.117
  O      190.340     188.374     245.967
  N      188.324     189.046     245.192
  C      187.495     189.608     244.265
  O      186.272     189.623     244.376
  C      188.152     190.216     243.098
  C      189.487     190.194     243.032
  O      193.669     187.627     239.389
  O      191.118     187.114     239.269
  H      194.335     188.251     239.046
  H      192.652     186.388     243.915
  H      187.891     188.633     246.000
  H      187.524     190.653     242.334
  H      189.997     190.631     242.179
  H      192.192     189.800     244.842
  H      191.644     187.845     242.525
  H      194.032     187.941     242.098
  H      194.201     190.704     242.528
  H      192.973     191.112     240.454
  H      194.049     189.722     240.237
  P      195.621     187.591     244.179
  C      194.499     186.523     246.291
  O      194.858     186.402     244.934
  O      196.505     188.252     245.346
  O      196.427     187.217     242.976
  H      195.960     188.619     246.062
  H      193.719     185.786     246.519
  H      194.101     187.524     246.507
  H      195.367     186.327     246.924
  H      191.279     189.863     236.307
  H      190.497     189.990     237.865
  H      190.475     188.474     236.998

 3  4  5  6  7  8  9  10  11  12  13  24  28  29  30  31  32 0
 6-311+G(2d,p)
 ****
 33  34 0
 6-311+G(2d,p)
 ****
 1  2  14  15  16  17  18  19  20  21  22  23  25  26  27 0
 3-21G
 ****
 35  36  37  38  39  40  41  42  43  44  45 0
 3-21G
 ****


