%nproc=1
%NoSave
%Mem=1900MB
#P OB98/GEN NMR

erre ene a

0 1
  C      516.304    -704.358      -3.834
  O      516.013    -705.500      -3.066
  H      517.025    -703.738      -3.290
  H      515.400    -703.771      -4.003
  H      516.748    -704.644      -4.798
  P      515.124    -706.638      -3.771
  C      512.860    -706.702      -5.047
  O      513.817    -705.911      -4.349
  C      511.444    -706.335      -4.612
  O      511.321    -704.899      -4.479
  C      510.358    -706.777      -5.589
  O      510.001    -708.138      -5.406
  C      509.222    -705.845      -5.181
  O      508.619    -706.325      -3.960
  C      509.975    -704.535      -4.908
  N      508.224    -700.300      -7.093
  C      507.866    -700.892      -5.889
  N      506.900    -700.276      -5.169
  N      508.411    -702.000      -5.436
  C      509.355    -702.507      -6.261
  C      509.787    -702.006      -7.474
  C      509.189    -700.784      -7.960
  O      509.479    -700.205      -9.001
  N      510.777    -702.792      -8.016
  C      510.910    -703.778      -7.154
  N      510.070    -703.659      -6.073
  O      514.563    -707.494      -2.534
  O      515.858    -707.503      -4.742
  H      508.371    -707.252      -4.119
  H      514.524    -708.430      -2.798
  H      507.761    -699.459      -7.391
  H      511.614    -704.601      -7.256
  H      509.521    -703.945      -4.107
  H      508.441    -705.785      -5.931
  H      506.413    -699.462      -5.491
  H      510.642    -706.572      -6.628
  H      506.646    -700.686      -4.269
  H      511.275    -706.768      -3.623
  H      513.048    -707.760      -4.831
  H      512.989    -706.530      -6.119
  P      509.548    -708.970      -6.703
  C      507.988    -708.395      -8.706
  O      508.342    -708.130      -7.352
  O      508.815    -710.242      -6.075
  O      510.645    -709.348      -7.631
  H      508.814    -710.982      -6.722
  H      507.174    -707.762      -8.992
  H      507.694    -709.419      -8.804
  H      508.829    -708.203      -9.339

 6  7  8  9  10  11  12  13  14  15  26  29  33  34 0
 6-311+G(2d,p)
 ****
 36  38  39  40  41 0
 6-311+G(2d,p)
 ****
 1  2  3  4  5  16  17  18  19  20  21  22  23  24  25 0
 3-21G
 ****
 27  28  30  31  32  35  37  42  43  44  45  46  47 0
 3-21G
 ****
 48  49 0
 3-21G
 ****


