%nproc=1
%NoSave
%Mem=1900MB
#P OB98/GEN NMR

erre ene a

0 1
  C     -231.829     243.078    -294.747
  O     -231.603     244.472    -294.708
  H     -231.966     242.772    -295.787
  H     -232.741     242.841    -294.193
  H     -230.984     242.530    -294.325
  P     -230.993     245.079    -293.354
  C     -228.997     246.300    -294.479
  O     -230.217     246.425    -293.764
  C     -228.540     247.664    -294.998
  O     -229.338     248.005    -296.173
  C     -228.695     248.807    -293.981
  O     -227.595     249.716    -294.134
  C     -229.958     249.508    -294.453
  O     -230.021     250.862    -294.019
  C     -229.825     249.343    -295.964
  N     -233.122     252.939    -297.143
  C     -231.842     253.026    -296.638
  N     -231.380     254.262    -296.340
  N     -231.073     251.990    -296.433
  C     -231.648     250.817    -296.794
  C     -232.905     250.595    -297.300
  C     -233.754     251.750    -297.504
  O     -234.906     251.734    -297.928
  N     -233.136     249.254    -297.474
  C     -232.025     248.667    -297.057
  N     -231.093     249.571    -296.632
  O     -229.809     244.052    -293.013
  O     -231.956     245.215    -292.223
  H     -229.842     250.882    -293.056
  H     -230.131     243.376    -292.386
  H     -233.680     253.769    -297.267
  H     -231.857     247.599    -297.021
  H     -229.103     250.045    -296.401
  H     -230.841     248.982    -294.074
  H     -231.903     255.108    -296.496
  H     -228.756     248.472    -292.941
  H     -230.428     254.342    -296.003
  H     -227.497     247.582    -295.332
  H     -229.146     245.627    -295.331
  H     -228.235     245.869    -293.822
  P     -227.293     250.746    -292.943
  C     -224.718     250.400    -292.828
  O     -225.793     251.286    -293.102
  O     -227.210     249.794    -291.658
  O     -228.342     251.796    -292.778
  H     -227.563     250.261    -290.878
  H     -223.789     250.909    -292.980
  H     -224.774     249.557    -293.485
  H     -224.781     250.066    -291.813

 6  7  8  9  10  11  12  13  14  15  26  29  33  34 0
 6-311+G(2d,p)
 ****
 36  38  39  40  41 0
 6-311+G(2d,p)
 ****
 1  2  3  4  5  16  17  18  19  20  21  22  23  24  25 0
 3-21G
 ****
 27  28  30  31  32  35  37  42  43  44  45  46  47 0
 3-21G
 ****
 48  49 0
 3-21G
 ****


