%nproc=1
%NoSave
%Mem=1900MB
#P OB98/GEN NMR

erre ene a

0 1
  C       28.358     799.859    -177.903
  O       29.358     799.321    -178.747
  H       27.369     799.725    -178.360
  H       28.376     799.320    -176.950
  H       28.542     800.920    -177.717
  P       29.518     800.001    -180.195
  C       30.917     801.949    -179.206
  O       29.758     801.566    -179.935
  C       32.016     802.412    -180.156
  O       31.584     803.586    -180.876
  C       33.328     802.800    -179.484
  O       34.106     801.659    -179.164
  C       33.973     803.634    -180.580
  O       34.553     802.760    -181.572
  C       32.768     804.374    -181.177
  N       32.334     809.343    -182.337
  C       32.415     808.234    -183.116
  N       32.509     806.945    -182.733
  C       32.488     806.846    -181.393
  C       32.382     807.879    -180.474
  C       32.306     809.186    -180.995
  N       32.285     810.309    -180.187
  N       32.406     807.383    -179.178
  C       32.549     806.081    -179.325
  N       32.596     805.709    -180.639
  O       28.016     799.937    -180.780
  O       30.490     799.329    -181.107
  H       33.813     802.273    -181.991
  H       27.933     799.157    -181.357
  H       32.421     808.422    -184.192
  H       32.627     805.379    -178.506
  H       32.830     804.462    -182.274
  H       34.776     804.283    -180.212
  H       33.153     803.439    -178.607
  H       32.172     801.616    -180.893
  H       31.281     801.093    -178.623
  H       32.695     811.135    -180.623
  H       32.531     810.139    -179.212
  H       30.643     802.753    -178.514
  P       35.299     801.844    -178.108
  C       33.551     801.648    -176.213
  O       34.633     802.396    -176.749
  O       36.094     803.120    -178.687
  O       36.211     800.669    -177.953
  H       37.025     802.886    -178.836
  H       33.202     802.118    -175.317
  H       33.880     800.655    -175.990
  H       32.756     801.608    -176.928

 6  7  8  9  10  11  12  13  14  15  25  28  32  33  34  35 0
 6-311+G(2d,p)
 ****
 36  39  40 0
 6-311+G(2d,p)
 ****
 1  2  3  4  5  16  17  18  19  20  21  22  23  24 0
 3-21G
 ****
 26  27  29  30  31  37  38  41  42  43  44  45  46  47  48 0
 3-21G
 ****


