%nproc=1
%NoSave
%Mem=1900MB
#P OB98/GEN NMR

erre ene a

0 1
  C     -311.439     113.522    -179.281
  O     -310.264     113.695    -180.047
  H     -311.186     112.962    -178.377
  H     -312.179     112.953    -179.847
  H     -311.857     114.491    -178.988
  P     -310.325     114.620    -181.354
  C     -310.005     117.013    -180.442
  O     -309.393     115.892    -181.070
  C     -308.944     117.845    -179.723
  O     -308.543     117.196    -178.495
  C     -307.666     118.046    -180.529
  O     -307.840     119.012    -181.537
  C     -306.696     118.440    -179.419
  O     -306.837     119.832    -179.094
  C     -307.163     117.545    -178.255
  N     -306.337     116.350    -178.086
  C     -305.149     116.513    -177.381
  O     -304.768     117.591    -176.935
  N     -304.389     115.380    -177.226
  C     -304.638     114.163    -177.788
  O     -303.875     113.205    -177.696
  C     -305.894     114.058    -178.546
  C     -306.671     115.138    -178.659
  O     -311.692     114.936    -181.862
  O     -309.479     113.794    -182.439
  H     -306.422     119.951    -178.218
  H     -310.091     113.379    -183.077
  H     -303.518     115.483    -176.724
  H     -306.132     113.102    -178.999
  H     -307.599     115.078    -179.218
  H     -307.146     118.110    -177.312
  H     -305.655     118.278    -179.709
  H     -307.339     117.087    -180.954
  H     -309.392     118.818    -179.459
  H     -310.739     116.652    -179.717
  H     -310.514     117.609    -181.206
  P     -306.805     119.080    -182.760
  C     -307.785     117.193    -184.209
  O     -307.574     118.600    -184.083
  O     -305.488     118.422    -182.522
  O     -306.616     120.649    -183.009
  H     -305.678     120.892    -182.880
  H     -308.303     116.990    -185.123
  H     -308.369     116.845    -183.383
  H     -306.841     116.690    -184.215

 6  7  8  9  10  11  12  13  14  15  16  26  31  32  33  34  35 0
 6-311+G(2d,p)
 ****
 36  37 0
 6-311+G(2d,p)
 ****
 1  2  3  4  5  17  18  19  20  21  22  23  24  25 0
 3-21G
 ****
 27  28  29  30  38  39  40  41  42  43  44  45 0
 3-21G
 ****


