%nproc=1
%NoSave
%Mem=1900MB
#P OB98/GEN NMR

erre ene a

0 1
  C      -68.706      28.589      33.905
  O      -68.852      27.646      34.945
  H      -68.579      29.580      34.348
  H      -69.605      28.594      33.283
  H      -67.832      28.367      33.287
  P      -68.695      26.091      34.602
  C      -66.163      26.511      34.865
  O      -67.247      25.633      35.122
  C      -64.822      25.850      35.211
  O      -64.702      25.722      36.649
  C      -64.760      24.434      34.632
  O      -63.426      24.031      34.339
  C      -65.301      23.581      35.770
  O      -64.901      22.216      35.681
  C      -64.738      24.322      36.981
  N      -65.031      22.052      41.533
  C      -64.101      21.878      40.528
  N      -63.133      20.962      40.758
  N      -64.127      22.530      39.396
  C      -65.192      23.358      39.274
  C      -66.193      23.596      40.189
  C      -66.130      22.898      41.454
  O      -66.938      22.999      42.375
  N      -67.116      24.489      39.702
  C      -66.680      24.783      38.494
  N      -65.507      24.132      38.193
  O      -68.515      26.068      33.010
  O      -69.830      25.213      35.037
  H      -63.935      22.184      35.814
  H      -68.795      25.208      32.648
  H      -64.956      21.535      42.392
  H      -67.169      25.460      37.804
  H      -63.710      23.998      37.190
  H      -66.394      23.603      35.726
  H      -63.174      20.317      41.531
  H      -65.368      24.332      33.732
  H      -62.630      20.613      39.937
  H      -63.991      26.480      34.877
  H      -66.312      27.401      35.488
  H      -66.175      26.834      33.822
  P      -62.994      23.962      32.796
  C      -62.703      26.532      32.350
  O      -62.102      25.256      32.480
  O      -64.362      24.226      32.013
  O      -62.362      22.669      32.407
  H      -64.695      23.394      31.628
  H      -61.949      27.262      32.141
  H      -63.202      26.786      33.262
  H      -63.412      26.512      31.549

 6  7  8  9  10  11  12  13  14  15  26  29  33  34 0
 6-311+G(2d,p)
 ****
 36  38  39  40  41 0
 6-311+G(2d,p)
 ****
 1  2  3  4  5  16  17  18  19  20  21  22  23  24  25 0
 3-21G
 ****
 27  28  30  31  32  35  37  42  43  44  45  46  47 0
 3-21G
 ****
 48  49 0
 3-21G
 ****


