%nproc=1
%NoSave
%Mem=1900MB
#P OB98/GEN NMR

erre ene a

0 1
  C      530.106    -317.187    -178.362
  O      530.986    -317.110    -179.481
  P      532.225    -316.082    -179.410
  C      533.579    -315.132    -177.425
  O      532.970    -316.289    -178.005
  C      535.038    -315.422    -177.039
  O      535.079    -316.592    -176.176
  C      535.963    -315.744    -178.223
  O      536.630    -314.668    -178.877
  C      537.054    -316.570    -177.532
  O      538.020    -315.687    -176.925
  C      536.298    -317.326    -176.442
  N      537.122    -322.253    -175.323
  C      537.585    -321.108    -174.763
  N      537.313    -319.837    -175.124
  C      536.467    -319.801    -176.167
  C      535.918    -320.882    -176.837
  C      536.280    -322.162    -176.377
  N      535.823    -323.326    -176.950
  N      535.101    -320.461    -177.859
  C      535.172    -319.138    -177.819
  N      535.972    -318.696    -176.806
  O      531.913    -314.667    -179.765
  O      533.259    -316.721    -180.442
  H      538.776    -316.250    -176.668
  H      533.715    -316.006    -180.918
  H      538.248    -321.231    -173.918
  H      534.665    -318.472    -178.513
  H      536.855    -317.371    -175.503
  H      537.601    -317.207    -178.231
  H      535.446    -316.366    -178.966
  H      535.438    -314.564    -176.477
  H      533.017    -314.841    -176.536
  H      536.166    -324.197    -176.586
  H      535.241    -323.277    -177.774
  H      533.484    -314.321    -178.142
  P      536.212    -314.215    -180.358
  C      534.402    -312.569    -181.290
  O      535.046    -313.127    -180.168
  O      535.882    -315.330    -181.297
  O      537.462    -313.328    -180.814
  H      537.552    -312.483    -180.325
  H      533.510    -312.034    -180.947
  H      534.094    -313.359    -181.990
  H      535.070    -311.865    -181.794
  H      529.340    -317.908    -178.559
  H      529.659    -316.230    -178.193
  H      530.658    -317.481    -177.494

 3  4  5  6  7  8  9  10  11  12  22  25  29  30  31  32 0
 6-311+G(2d,p)
 ****
 33  36  37 0
 6-311+G(2d,p)
 ****
 1  2  13  14  15  16  17  18  19  20  21  23  24  26 0
 3-21G
 ****
 27  28  34  35  38  39  40  41  42  43  44  45  46  47  48 0
 3-21G
 ****


