%nproc=1
%NoSave
%Mem=1900MB
#P OB98/GEN NMR

erre ene a

0 1
  C      166.893    -495.536    -180.975
  O      165.682    -495.468    -180.250
  P      165.677    -495.757    -178.672
  C      165.810    -493.216    -178.092
  O      166.387    -494.503    -177.965
  C      165.806    -492.479    -176.744
  O      167.184    -492.279    -176.347
  C      165.177    -491.091    -176.783
  O      164.864    -490.698    -175.446
  C      166.322    -490.242    -177.301
  O      166.148    -488.856    -177.003
  C      167.561    -490.914    -176.646
  N      168.727    -490.886    -177.548
  C      169.129    -489.638    -178.018
  O      168.604    -488.586    -177.658
  N      170.102    -489.648    -178.987
  C      170.651    -490.769    -179.539
  O      171.274    -490.777    -180.591
  C      170.362    -492.031    -178.840
  C      169.407    -492.037    -177.904
  O      166.744    -496.934    -178.526
  O      164.348    -496.133    -178.108
  H      166.891    -488.379    -177.438
  H      166.294    -497.803    -178.502
  H      170.287    -488.754    -179.431
  H      170.894    -492.923    -179.151
  H      169.134    -492.967    -177.405
  H      167.839    -490.406    -175.713
  H      166.375    -490.344    -178.394
  H      164.289    -491.013    -177.420
  H      165.324    -493.107    -175.987
  H      164.794    -493.316    -178.481
  H      166.366    -492.624    -178.826
  P      163.539    -489.822    -175.209
  C      162.017    -491.893    -175.310
  O      162.333    -490.636    -175.883
  O      163.629    -488.381    -175.592
  O      163.262    -490.007    -173.643
  H      162.668    -489.296    -173.327
  H      160.952    -492.092    -175.457
  H      162.234    -491.903    -174.232
  H      162.600    -492.670    -175.804
  H      166.705    -495.316    -182.005
  H      167.305    -496.520    -180.890
  H      167.586    -494.824    -180.579

 3  4  5  6  7  8  9  10  11  12  13  23  28  29  30  31  32 0
 6-311+G(2d,p)
 ****
 33  34 0
 6-311+G(2d,p)
 ****
 1  2  14  15  16  17  18  19  20  21  22  24  25  26  27 0
 3-21G
 ****
 35  36  37  38  39  40  41  42  43  44  45 0
 3-21G
 ****


