%nproc=1
%NoSave
%Mem=1900MB
#P OB98/GEN NMR

erre ene a

0 1
  C      -69.857     -44.189    -388.305
  O      -69.975     -44.853    -389.553
  P      -70.709     -44.150    -390.799
  C      -69.056     -45.250    -392.453
  O      -70.417     -45.110    -392.047
  C      -68.753     -46.722    -392.772
  O      -68.598     -47.459    -391.536
  C      -69.859     -47.443    -393.543
  O      -69.838     -47.069    -394.913
  C      -69.516     -48.898    -393.243
  O      -68.430     -49.339    -394.088
  C      -69.032     -48.819    -391.777
  N      -70.072     -49.217    -390.825
  C      -70.223     -50.595    -390.628
  O      -69.520     -51.413    -391.215
  N      -71.165     -51.019    -389.712
  C      -71.912     -50.149    -389.084
  N      -72.770     -50.625    -388.150
  C      -71.797     -48.698    -389.309
  C      -70.875     -48.299    -390.176
  O      -70.346     -42.711    -391.015
  O      -72.266     -44.388    -390.532
  H      -68.132     -50.194    -393.738
  H      -72.693     -43.679    -389.984
  H      -72.443     -48.008    -388.767
  H      -70.722     -47.254    -390.377
  H      -68.148     -49.449    -391.637
  H      -70.355     -49.576    -393.393
  H      -70.841     -47.198    -393.121
  H      -67.806     -46.768    -393.319
  H      -72.689     -51.610    -387.905
  H      -68.409     -44.926    -391.639
  H      -73.160     -50.033    -387.424
  H      -68.870     -44.622    -393.329
  P      -71.209     -46.541    -395.560
  C      -70.143     -44.492    -396.762
  O      -70.782     -45.747    -396.899
  O      -71.680     -45.389    -394.547
  O      -72.253     -47.599    -395.746
  H      -72.381     -45.729    -393.956
  H      -69.715     -44.213    -397.727
  H      -69.344     -44.550    -396.019
  H      -70.875     -43.732    -396.458
  H      -69.341     -44.820    -387.613
  H      -70.832     -43.967    -387.926
  H      -69.309     -43.279    -388.435

 3  4  5  6  7  8  9  10  11  12  13  23  27  28  29  30  32 0
 6-311+G(2d,p)
 ****
 34  35 0
 6-311+G(2d,p)
 ****
 1  2  14  15  16  17  18  19  20  21  22  24  25  26 0
 3-21G
 ****
 31  33  36  37  38  39  40  41  42  43  44  45  46 0
 3-21G
 ****


