%nproc=1
%NoSave
%Mem=1900MB
#P OB98/GEN NMR

erre ene a

0 1
  C      299.687     359.633    2249.038
  O      300.827     359.230    2248.249
  P      300.715     358.736    2246.737
  C      301.963     360.843    2245.913
  O      300.829     360.002    2245.755
  C      302.441     361.422    2244.547
  O      303.325     360.481    2243.898
  C      301.313     361.681    2243.552
  O      300.604     362.871    2243.910
  C      302.110     361.769    2242.253
  O      302.708     363.062    2242.082
  C      303.202     360.696    2242.467
  N      302.902     359.451    2241.778
  C      303.354     359.351    2240.442
  O      303.891     360.323    2239.908
  N      303.130     358.172    2239.770
  C      302.496     357.224    2240.339
  N      302.307     356.071    2239.620
  C      301.922     357.305    2241.710
  C      302.184     358.418    2242.368
  O      299.514     357.858    2246.467
  O      302.074     357.932    2246.434
  H      302.926     363.364    2242.995
  H      301.876     357.233    2245.782
  H      301.350     356.490    2242.123
  H      301.823     358.579    2243.376
  H      304.176     361.072    2242.144
  H      301.467     361.579    2241.361
  H      300.618     360.815    2243.516
  H      303.013     362.335    2244.756
  H      302.707     356.055    2238.686
  H      302.769     360.245    2246.338
  H      301.824     355.244    2239.971
  H      301.728     361.642    2246.607
  P      299.325     362.783    2244.882
  C      299.685     365.043    2246.062
  O      299.669     363.616    2246.204
  O      298.809     361.383    2245.116
  O      298.219     363.675    2244.140
  H      297.341     363.302    2244.340
  H      299.520     365.486    2247.041
  H      298.912     365.358    2245.356
  H      300.685     365.341    2245.685
  H      300.014     359.921    2250.015
  H      299.002     358.815    2249.118
  H      299.201     360.461    2248.566

 3  4  5  6  7  8  9  10  11  12  13  23  27  28  29  30  32 0
 6-311+G(2d,p)
 ****
 34  35 0
 6-311+G(2d,p)
 ****
 1  2  14  15  16  17  18  19  20  21  22  24  25  26 0
 3-21G
 ****
 31  33  36  37  38  39  40  41  42  43  44  45  46 0
 3-21G
 ****


