%nproc=1
%NoSave
%Mem=1900MB
#P OB98/GEN NMR

erre ene a

0 1
  C      335.354    -386.131     -84.310
  O      334.356    -386.815     -83.579
  H      335.957    -386.866     -84.848
  H      336.005    -385.576     -83.629
  H      334.904    -385.447     -85.035
  P      333.263    -385.964     -82.771
  C      334.247    -386.097     -80.399
  O      334.032    -385.277     -81.538
  C      334.648    -385.248     -79.194
  O      335.794    -384.437     -79.561
  C      333.540    -384.308     -78.702
  O      333.591    -384.247     -77.280
  C      333.939    -382.962     -79.287
  O      333.435    -381.870     -78.516
  C      335.464    -383.059     -79.284
  N      338.565    -379.124     -79.943
  C      338.243    -379.824     -78.800
  N      338.811    -379.398     -77.643
  N      337.432    -380.848     -78.778
  C      336.945    -381.173     -80.001
  C      337.185    -380.557     -81.208
  C      338.076    -379.413     -81.216
  O      338.385    -378.749     -82.196
  N      336.486    -381.165     -82.221
  C      335.824    -382.139     -81.627
  N      336.060    -382.180     -80.280
  O      332.022    -386.706     -82.391
  O      332.944    -384.730     -83.737
  H      332.478    -381.789     -78.723
  H      332.112    -384.879     -84.223
  H      339.185    -378.336     -79.898
  H      335.155    -382.838     -82.122
  H      335.898    -382.784     -78.314
  H      333.549    -382.872     -80.308
  H      339.459    -378.628     -77.589
  H      332.543    -384.620     -79.032
  H      338.608    -379.910     -76.799
  H      334.977    -385.917     -78.392
  H      335.047    -386.808     -80.634
  H      333.332    -386.657     -80.174
  P      332.284    -384.653     -76.441
  C      332.206    -382.732     -74.722
  O      331.610    -383.307     -75.882
  O      332.471    -385.739     -75.438
  O      331.256    -385.105     -77.593
  H      330.652    -385.781     -77.228
  H      331.672    -381.846     -74.448
  H      333.226    -382.484     -74.931
  H      332.168    -383.435     -73.916

 6  7  8  9  10  11  12  13  14  15  26  29  33  34 0
 6-311+G(2d,p)
 ****
 36  38  39  40  41 0
 6-311+G(2d,p)
 ****
 1  2  3  4  5  16  17  18  19  20  21  22  23  24  25 0
 3-21G
 ****
 27  28  30  31  32  35  37  42  43  44  45  46  47 0
 3-21G
 ****
 48  49 0
 3-21G
 ****


