%nproc=1
%NoSave
%Mem=1900MB
#P OB98/GEN NMR

erre ene a

0 1
  C       64.547     594.615    -208.862
  O       63.805     595.704    -208.353
  H       64.111     594.267    -209.807
  H       65.576     594.950    -209.055
  H       64.577     593.801    -208.133
  P       62.264     595.422    -207.993
  C       60.783     596.616    -209.762
  O       61.478     595.432    -209.390
  C       61.766     597.611    -210.398
  O       62.773     596.901    -211.149
  C       61.122     598.571    -211.385
  O       60.493     599.678    -210.741
  C       62.344     599.030    -212.172
  O       63.088     599.988    -211.394
  C       63.140     597.719    -212.292
  N       63.665     597.703    -217.394
  C       64.035     598.595    -216.456
  N       63.860     598.532    -215.116
  C       63.219     597.392    -214.777
  C       62.769     596.406    -215.625
  C       63.024     596.572    -217.001
  N       62.623     595.682    -217.965
  N       62.117     595.402    -214.911
  C       62.207     595.785    -213.660
  N       62.849     596.983    -213.522
  O       61.789     596.787    -207.295
  O       62.006     594.223    -207.138
  H       62.476     600.717    -211.185
  H       60.992     596.625    -206.756
  H       64.549     599.478    -216.815
  H       61.822     595.231    -212.806
  H       64.225     597.878    -212.247
  H       62.101     599.506    -213.113
  H       60.431     598.067    -212.068
  H       62.267     598.148    -209.585
  H       60.344     597.068    -208.869
  H       62.688     595.981    -218.929
  H       62.016     594.922    -217.701
  H       59.989     596.360    -210.481
  P       59.449     600.535    -211.599
  C       60.393     602.860    -212.313
  O       60.338     601.456    -212.572
  O       58.863     601.570    -210.530
  O       58.372     599.735    -212.274
  H       57.968     601.869    -210.777
  H       61.019     603.333    -213.040
  H       60.794     603.027    -211.335
  H       59.407     603.272    -212.370

 6  7  8  9  10  11  12  13  14  15  25  28  32  33  34  35 0
 6-311+G(2d,p)
 ****
 36  39  40 0
 6-311+G(2d,p)
 ****
 1  2  3  4  5  16  17  18  19  20  21  22  23  24 0
 3-21G
 ****
 26  27  29  30  31  37  38  41  42  43  44  45  46  47 0
 3-21G
 ****
 48 0
 3-21G
 ****


