%nproc=1
%NoSave
%Mem=1900MB
#P OB98/GEN NMR

erre ene a

0 1
  C       64.696    -305.327     141.895
  O       65.061    -305.584     143.251
  P       66.181    -304.662     143.937
  C       68.745    -304.677     144.211
  O       67.623    -305.262     143.558
  C       69.954    -305.619     144.167
  O       69.812    -306.715     145.086
  C       70.165    -306.254     142.801
  O       70.699    -305.324     141.878
  C       71.081    -307.422     143.156
  O       72.450    -306.990     143.248
  C       70.557    -307.836     144.551
  N       69.752    -309.050     144.528
  C       70.375    -310.206     145.017
  O       71.548    -310.169     145.393
  N       69.655    -311.377     145.049
  C       68.427    -311.390     144.622
  N       67.763    -312.575     144.680
  C       67.738    -310.195     144.093
  C       68.457    -309.070     144.067
  O       65.974    -304.364     145.385
  O       66.127    -303.321     143.057
  H       72.645    -306.537     142.403
  H       66.378    -302.562     143.620
  H       66.713    -310.256     143.754
  H       68.030    -308.149     143.691
  H       71.396    -308.002     145.238
  H       71.041    -308.213     142.401
  H       69.206    -306.642     142.425
  H       70.849    -305.038     144.445
  H       68.258    -313.383     145.041
  H       68.489    -304.455     145.253
  H       66.787    -312.681     144.422
  H       68.975    -303.716     143.734
  P       69.799    -304.929     140.606
  C       69.010    -306.143     138.457
  O       69.929    -306.110     139.532
  O       70.628    -303.728     139.940
  O       68.399    -304.506     140.938
  H       70.010    -303.087     139.542
  H       69.418    -306.792     137.670
  H       68.846    -305.141     138.037
  H       68.060    -306.560     138.798
  H       63.943    -306.024     141.590
  H       65.556    -305.434     141.268
  H       64.315    -304.331     141.811

 3  4  5  6  7  8  9  10  11  12  13  23  27  28  29  30  32 0
 6-311+G(2d,p)
 ****
 34  35 0
 6-311+G(2d,p)
 ****
 1  2  14  15  16  17  18  19  20  21  22  24  25  26 0
 3-21G
 ****
 31  33  36  37  38  39  40  41  42  43  44  45  46 0
 3-21G
 ****


