%nproc=1
%NoSave
%Mem=1900MB
#P OB98/GEN NMR

erre ene a

0 1
  C      -57.023     105.079    -257.240
  O      -58.417     104.977    -257.008
  H      -56.787     106.116    -257.488
  H      -56.742     104.439    -258.083
  H      -56.474     104.784    -256.348
  P      -58.983     103.521    -256.613
  C      -61.362     104.588    -256.563
  O      -60.538     103.511    -257.008
  C      -62.341     104.973    -257.669
  O      -61.608     105.371    -258.857
  C      -63.251     103.834    -258.115
  O      -64.327     103.612    -257.216
  C      -63.697     104.336    -259.476
  O      -64.789     105.247    -259.380
  C      -62.447     105.063    -260.002
  N      -60.192     105.100    -264.582
  C      -60.776     106.078    -263.858
  N      -61.344     105.979    -262.636
  C      -61.234     104.737    -262.154
  C      -60.662     103.638    -262.778
  C      -60.109     103.842    -264.059
  N      -59.530     102.856    -264.801
  N      -60.784     102.517    -261.990
  C      -61.403     102.922    -260.908
  N      -61.692     104.259    -260.953
  O      -58.999     103.573    -255.005
  O      -58.179     102.376    -257.124
  H      -64.794     105.762    -260.208
  H      -58.214     103.113    -254.661
  H      -60.812     107.050    -264.323
  H      -61.674     102.291    -260.048
  H      -62.692     106.012    -260.484
  H      -64.011     103.501    -260.120
  H      -62.659     102.912    -258.244
  H      -62.939     105.837    -257.329
  H      -60.732     105.453    -256.317
  H      -61.898     104.276    -255.655
  H      -59.226     103.067    -265.744
  H      -59.582     101.902    -264.469
  P      -64.750     102.095    -256.929
  C      -67.121     102.990    -256.269
  O      -66.361     102.032    -256.994
  O      -64.423     101.897    -255.367
  O      -64.062     101.087    -257.779
  H      -64.118     100.978    -255.210
  H      -68.164     102.806    -256.420
  H      -66.878     103.973    -256.614
  H      -66.893     102.912    -255.227

 6  7  8  9  10  11  12  13  14  15  25  28  32  33  34  35 0
 6-311+G(2d,p)
 ****
 36  37  40 0
 6-311+G(2d,p)
 ****
 1  2  3  4  5  16  17  18  19  20  21  22  23  24 0
 3-21G
 ****
 26  27  29  30  31  38  39 41  42  43  44  45  46  47  48 0
 3-21G
 ****


