%nproc=1
%NoSave
%Mem=1900MB
#P OB98/GEN NMR

erre ene a

0 1
  C      -96.724     259.628    -512.261
  O      -97.937     259.727    -511.541
  H      -96.876     259.960    -513.287
  H      -95.980     260.274    -511.777
  H      -96.351     258.598    -512.246
  P      -99.115     258.719    -511.968
  C     -100.780     258.616    -513.970
  O      -99.637     259.243    -513.396
  C     -101.297     259.420    -515.163
  O     -101.536     260.795    -514.722
  C     -100.313     259.480    -516.343
  O     -101.057     259.402    -517.560
  C      -99.667     260.843    -516.206
  O      -99.172     261.330    -517.448
  C     -100.806     261.666    -515.621
  N     -101.530     266.675    -514.925
  C     -102.220     265.746    -515.622
  N     -101.972     264.429    -515.760
  C     -100.901     264.096    -515.023
  C     -100.086     264.916    -514.267
  C     -100.426     266.279    -514.240
  N      -99.700     267.237    -513.567
  N      -99.050     264.190    -513.687
  C      -99.236     262.955    -514.097
  N     -100.332     262.837    -514.902
  O     -100.296     259.127    -510.962
  O      -98.783     257.264    -511.888
  H      -99.928     261.486    -518.054
  H     -100.139     258.717    -510.092
  H     -103.099     266.117    -516.150
  H      -98.598     262.113    -513.840
  H     -101.514     262.018    -516.389
  H      -98.826     260.790    -515.495
  H      -99.580     258.663    -516.313
  H     -102.265     259.013    -515.472
  H     -101.572     258.530    -513.206
  H      -99.998     268.198    -513.642
  H      -98.850     266.972    -513.097
  H     -100.497     257.605    -514.302
  P     -100.449     258.468    -518.731
  C      -99.525     258.985    -521.075
  O      -99.594     259.390    -519.728
  O     -101.747     258.066    -519.591
  O      -99.750     257.260    -518.202
  H     -101.774     257.101    -519.722
  H      -98.929     259.682    -521.627
  H     -100.511     258.953    -521.489
  H      -99.082     258.013    -521.133

 6  7  8  9  10  11  12  13  14  15  25  28  32  33  34  35 0
 6-311+G(2d,p)
 ****
 36  39  40 0
 6-311+G(2d,p)
 ****
 1  2  3  4  5  16  17  18  19  20  21  22  23  24 0
 3-21G
 ****
 26  27  29  30  31  37  38  41  42  43  44  45  46  47 0
 3-21G
 ****
 48 0
 3-21G
 ****


