%nproc=1
%NoSave
%Mem=1900MB
#P OB98/GEN NMR

erre ene a

0 1
  C     -160.282     380.105    1094.088
  O     -161.369     379.940    1093.207
  P     -161.016     379.620    1091.668
  C     -163.561     379.166    1091.296
  O     -162.377     379.803    1090.837
  C     -164.542     379.033    1090.121
  O     -163.972     378.233    1089.072
  C     -165.868     378.368    1090.494
  O     -166.746     379.306    1091.093
  C     -166.345     377.849    1089.147
  O     -166.967     378.902    1088.379
  C     -165.020     377.406    1088.487
  N     -166.456     372.681    1087.364
  C     -167.114     373.902    1087.152
  N     -168.300     373.832    1086.513
  N     -166.640     375.065    1087.536
  C     -165.456     374.973    1088.181
  C     -164.710     373.825    1088.459
  C     -165.228     372.561    1087.979
  O     -164.642     371.487    1088.060
  N     -163.583     374.127    1089.139
  C     -163.595     375.463    1089.255
  N     -164.708     376.002    1088.666
  O     -160.772     378.042    1091.661
  O     -159.846     380.387    1091.115
  H     -166.283     379.520    1088.069
  H     -159.815     377.840    1091.712
  H     -166.862     371.828    1087.035
  H     -162.841     376.053    1089.725
  H     -165.019     377.598    1087.403
  H     -167.090     377.056    1089.234
  H     -168.732     372.991    1086.193
  H     -165.703     377.523    1091.175
  H     -168.794     374.700    1086.357
  H     -164.738     380.047    1089.713
  H     -164.019     379.794    1092.070
  H     -163.321     378.195    1091.708
  P     -167.694     378.783    1092.282
  C     -167.449     380.986    1093.622
  O     -168.324     380.066    1093.015
  O     -166.661     378.192    1093.353
  O     -168.682     377.739    1091.868
  H     -167.044     377.408    1093.793
  H     -167.891     381.995    1093.592
  H     -166.456     381.018    1093.138
  H     -167.308     380.703    1094.673
  H     -160.648     380.312    1095.072
  H     -159.674     380.920    1093.755
  H     -159.698     379.209    1094.106

 3  4  5  6  7  8  9  10  11  12  23  26  30  31 0
 6-311+G(2d,p)
 ****
 33  35  36  37  38 0
 6-311+G(2d,p)
 ****
 1  2  13  14  15  16  17  18  19  20  21  22  24  25 0
 3-21G
 ****
 27  28  29  32  34  39  40  41  42  43  44  45  46  47  48  49 0
 3-21G
 ****


