%nproc=1
%NoSave
%Mem=1900MB
#P OB98/GEN NMR

erre ene a

0 1
  C      358.251     -33.001    -537.303
  O      359.113     -34.120    -537.235
  H      358.568     -32.324    -538.101
  H      357.241     -33.359    -537.519
  H      358.240     -32.470    -536.346
  P      360.677     -33.806    -537.029
  C      361.370     -32.988    -539.388
  O      361.380     -34.047    -538.448
  C      362.069     -33.419    -540.685
  O      363.476     -33.590    -540.460
  C      361.586     -34.754    -541.242
  O      360.333     -34.618    -541.938
  C      362.723     -35.087    -542.190
  O      362.552     -34.362    -543.434
  C      363.947     -34.571    -541.430
  N      366.879     -38.765    -541.938
  C      366.300     -37.944    -542.862
  N      365.527     -36.864    -542.649
  C      365.378     -36.623    -541.341
  C      365.904     -37.360    -540.297
  C      366.686     -38.483    -540.638
  N      367.259     -39.332    -539.705
  N      365.564     -36.813    -539.080
  C      364.830     -35.760    -539.377
  N      364.688     -35.601    -540.729
  O      361.188     -35.024    -536.136
  O      360.972     -32.495    -536.384
  H      361.665     -34.573    -543.764
  H      361.872     -34.701    -535.512
  H      366.476     -38.202    -543.896
  H      364.401     -35.076    -538.652
  H      364.640     -34.030    -542.098
  H      362.779     -36.144    -542.453
  H      361.513     -35.536    -540.446
  H      361.937     -32.610    -541.418
  H      361.899     -32.121    -538.968
  H      367.960     -39.989    -540.001
  H      367.127     -39.101    -538.719
  H      360.331     -32.691    -539.590
  P      358.999     -35.067    -541.162
  C      359.325     -37.633    -540.979
  O      358.689     -36.571    -541.664
  O      357.878     -34.185    -541.867
  O      359.018     -34.868    -539.678
  H      357.104     -34.066    -541.251
  H      359.031     -38.565    -541.414
  H      359.039     -37.615    -539.948
  H      360.386     -37.522    -541.056

 6  7  8  9  10  11  12  13  14  15  25  28  32  33  34  35 0
 6-311+G(2d,p)
 ****
 36  39  40 0
 6-311+G(2d,p)
 ****
 1  2  3  4  5  16  17  18  19  20  21  22  23  24 0
 3-21G
 ****
 26  27  29  30  31  37  38  41  42  43  44  45  46  47  48 0
 3-21G
 ****


