%nproc=1
%NoSave
%Mem=1900MB
#P OB98/GEN NMR

erre ene a

0 1
  C     -187.860    -774.538    -339.817
  O     -187.264    -773.237    -339.760
  P     -185.832    -773.032    -340.458
  C     -184.232    -771.027    -340.925
  O     -185.525    -771.452    -340.506
  C     -184.349    -769.801    -341.836
  O     -184.747    -770.171    -343.185
  C     -185.386    -768.780    -341.358
  O     -184.836    -767.924    -340.358
  C     -185.634    -767.980    -342.630
  O     -184.566    -767.043    -342.835
  C     -185.584    -769.091    -343.712
  N     -189.214    -769.115    -347.231
  C     -187.992    -768.470    -347.216
  N     -187.694    -767.719    -348.306
  N     -187.148    -768.535    -346.231
  C     -187.569    -769.340    -345.207
  C     -188.764    -770.022    -345.103
  C     -189.703    -769.921    -346.198
  O     -190.800    -770.456    -346.254
  N     -188.838    -770.707    -343.922
  C     -187.691    -770.455    -343.322
  N     -186.893    -769.615    -344.048
  O     -186.124    -773.392    -341.994
  O     -184.740    -773.886    -339.885
  H     -184.828    -766.485    -343.594
  H     -185.305    -773.722    -342.429
  H     -189.838    -769.012    -348.015
  H     -187.399    -770.853    -342.353
  H     -185.103    -768.752    -344.639
  H     -186.567    -767.423    -342.593
  H     -188.274    -767.666    -349.134
  H     -186.301    -769.266    -341.024
  H     -186.786    -767.283    -348.322
  H     -183.372    -769.312    -341.894
  H     -183.726    -771.837    -341.460
  H     -183.616    -770.820    -340.048
  P     -185.295    -768.154    -338.840
  C     -183.903    -768.299    -336.653
  O     -184.055    -767.700    -337.923
  O     -185.315    -769.754    -338.711
  O     -186.622    -767.559    -338.484
  H     -186.003    -770.044    -338.080
  H     -182.914    -767.995    -336.238
  H     -183.917    -769.393    -336.722
  H     -184.681    -767.956    -335.965
  H     -188.804    -774.520    -339.313
  H     -187.215    -775.247    -339.341
  H     -188.006    -774.819    -340.839

 3  4  5  6  7  8  9  10  11  12  23  26  30  31 0
 6-311+G(2d,p)
 ****
 33  35  36  37  38 0
 6-311+G(2d,p)
 ****
 1  2  13  14  15  16  17  18  19  20  21  22  24  25 0
 3-21G
 ****
 27  28  29  32  34  39  40  41  42  43  44  45  46  47  48  49 0
 3-21G
 ****


