%nproc=1
%NoSave
%Mem=1900MB
#P OB98/GEN NMR

erre ene a

0 1
  C       79.114      73.194    -598.034
  O       79.407      74.585    -598.142
  P       80.477      75.201    -597.115
  C       78.709      75.840    -595.317
  O       79.824      75.021    -595.654
  C       78.800      76.293    -593.860
  O       79.084      75.169    -593.008
  C       79.899      77.310    -593.582
  O       79.497      78.641    -593.915
  C       80.049      77.164    -592.075
  O       78.996      77.884    -591.403
  C       79.873      75.651    -591.886
  N       83.989      74.682    -589.008
  C       82.939      75.513    -588.826
  N       81.887      75.723    -589.640
  C       82.010      74.998    -590.770
  C       83.041      74.139    -591.111
  C       84.067      73.982    -590.170
  N       85.132      73.119    -590.348
  N       82.817      73.581    -592.350
  C       81.662      74.081    -592.745
  N       81.130      74.933    -591.820
  O       80.363      76.781    -597.377
  O       81.873      74.698    -597.280
  H       78.150      77.560    -591.777
  H       81.189      77.222    -597.103
  H       82.946      76.069    -587.894
  H       81.183      73.849    -593.682
  H       79.308      75.415    -590.970
  H       80.994      77.569    -591.704
  H       80.839      77.028    -594.081
  H       77.814      76.692    -593.571
  H       77.791      75.267    -595.455
  H       85.722      72.927    -589.548
  H       85.077      72.461    -591.108
  H       78.684      76.708    -595.987
  P       80.657      79.627    -594.428
  C       80.738      80.334    -591.920
  O       81.457      80.067    -593.109
  O       79.841      80.944    -594.847
  O       81.473      79.083    -595.552
  H       80.332      81.451    -595.517
  H       81.425      80.309    -591.079
  H       79.949      79.584    -591.761
  H       80.287      81.329    -591.983
  H       78.391      72.923    -598.775
  H       78.722      72.987    -597.060
  H       80.009      72.628    -598.186

 3  4  5  6  7  8  9  10  11  12  22  25  29  30  31  32 0
 6-311+G(2d,p)
 ****
 33  36  37 0
 6-311+G(2d,p)
 ****
 1  2  13  14  15  16  17  18  19  20  21  23  24  26 0
 3-21G
 ****
 27  28  34  35  38  39  40  41  42  43  44  45  46  47  48 0
 3-21G
 ****


