%nproc=1
%NoSave
%Mem=1900MB
#P OB98/GEN NMR

erre ene a

0 1
  C      238.926     228.753     -62.055
  O      240.246     228.490     -62.478
  H      238.818     229.827     -61.893
  H      238.728     228.233     -61.111
  H      238.198     228.438     -62.808
  P      240.589     227.052     -63.093
  C      240.810     227.878     -65.531
  O      241.469     227.301     -64.411
  C      241.799     228.674     -66.391
  O      242.108     229.923     -65.718
  C      243.122     227.921     -66.567
  O      243.775     228.264     -67.786
  C      243.954     228.431     -65.402
  O      245.359     228.295     -65.613
  C      243.483     229.881     -65.303
  N      246.266     232.736     -62.127
  C      246.596     232.243     -63.373
  N      247.831     232.557     -63.836
  N      245.801     231.494     -64.091
  C      244.631     231.202     -63.475
  C      244.200     231.613     -62.232
  C      245.077     232.469     -61.463
  O      244.843     232.912     -60.344
  N      242.958     231.104     -61.943
  C      242.638     230.389     -63.000
  N      243.612     230.437     -63.970
  O      239.191     226.558     -63.701
  O      241.152     226.054     -62.128
  H      245.802     228.505     -64.771
  H      239.181     225.590     -63.784
  H      246.905     233.331     -61.631
  H      241.717     229.833     -63.122
  H      244.056     230.522     -65.985
  H      243.703     227.841     -64.516
  H      248.534     232.959     -63.237
  H      243.002     226.843     -66.517
  H      248.196     231.963     -64.584
  H      241.335     228.936     -67.349
  H      240.030     228.531     -65.134
  H      240.317     227.105     -66.121
  P      244.846     227.238     -68.394
  C      243.797     226.680     -70.760
  O      244.806     227.295     -69.989
  O      244.236     225.802     -68.049
  O      246.234     227.405     -67.856
  H      244.819     225.325     -67.430
  H      243.985     226.856     -71.799
  H      242.845     227.091     -70.495
  H      243.796     225.627     -70.571

 6  7  8  9  10  11  12  13  14  15  26  29  33  34 0
 6-311+G(2d,p)
 ****
 36  38  39  40  41 0
 6-311+G(2d,p)
 ****
 1  2  3  4  5  16  17  18  19  20  21  22  23  24  25 0
 3-21G
 ****
 27  28  30  31  32  35  37  42  43  44  45  46  47 0
 3-21G
 ****
 48  49 0
 3-21G
 ****


