%nproc=1
%NoSave
%Mem=1900MB
#P OB98/GEN NMR

erre ene a

0 1
  C      149.068     -75.712      -2.937
  O      149.366     -75.295      -1.620
  P      148.419     -74.272      -0.828
  C      149.022     -72.059      -1.989
  O      149.194     -72.866      -0.835
  C      150.305     -71.300      -2.335
  O      150.094     -70.511      -3.538
  C      150.800     -70.349      -1.238
  O      152.230     -70.362      -1.309
  C      150.256     -69.010      -1.697
  O      150.931     -67.910      -1.100
  C      150.417     -69.140      -3.218
  N      149.576     -68.192      -3.940
  C      149.779     -68.098      -5.318
  O      150.685     -68.736      -5.859
  N      148.990     -67.242      -6.047
  C      148.147     -66.472      -5.433
  N      147.389     -65.649      -6.206
  C      147.992     -66.450      -3.966
  C      148.719     -67.337      -3.289
  O      147.968     -74.735       0.516
  O      147.216     -74.007      -1.848
  H      151.889     -67.993      -1.293
  H      146.587     -74.772      -1.847
  H      147.317     -65.752      -3.496
  H      148.672     -67.396      -2.212
  H      151.462     -68.971      -3.512
  H      149.195     -68.933      -1.433
  H      150.459     -70.620      -0.237
  H      151.082     -72.040      -2.566
  H      147.517     -65.707      -7.209
  H      148.231     -71.333      -1.781
  H      146.649     -65.072      -5.838
  H      148.695     -72.676      -2.832
  P      153.129     -70.316       0.016
  C      154.249     -68.187      -0.857
  O      154.452     -69.491      -0.346
  O      153.372     -71.641       0.662
  O      152.339     -69.326       0.999
  H      152.674     -69.435       1.908
  H      155.188     -67.632      -0.799
  H      153.485     -67.654      -0.282
  H      153.936     -68.249      -1.903
  H      149.823     -76.390      -3.276
  H      149.038     -74.859      -3.583
  H      148.117     -76.202      -2.949

 3  4  5  6  7  8  9  10  11  12  13  23  27  28  29  30  32 0
 6-311+G(2d,p)
 ****
 34  35 0
 6-311+G(2d,p)
 ****
 1  2  14  15  16  17  18  19  20  21  22  24  25  26 0
 3-21G
 ****
 31  33  36  37  38  39  40  41  42  43  44  45  46 0
 3-21G
 ****


