%nproc=1
%NoSave
%Mem=1900MB
#P OB98/GEN NMR

erre ene a

0 1
  C      519.122     -94.365      61.586
  O      519.859     -94.755      62.726
  H      519.495     -93.398      61.242
  H      518.067     -94.266      61.844
  H      519.243     -95.090      60.775
  P      519.725     -96.259      63.263
  C      520.606     -98.559      62.498
  O      520.718     -97.148      62.365
  C      521.602     -99.275      61.577
  O      521.178     -99.082      60.193
  C      523.040     -98.762      61.691
  O      523.917     -99.863      61.405
  C      523.095     -97.744      60.568
  O      524.427     -97.423      60.214
  C      522.271     -98.457      59.493
  N      521.810     -97.544      58.444
  C      522.760     -96.683      57.910
  O      523.924     -96.632      58.309
  N      522.316     -95.836      56.941
  C      521.028     -95.722      56.494
  O      520.682     -94.918      55.641
  C      520.054     -96.636      57.121
  C      520.487     -97.494      58.054
  O      518.334     -96.787      63.368
  O      520.467     -96.240      64.682
  H      524.980     -97.329      61.018
  H      520.060     -96.898      65.280
  H      522.995     -95.199      56.534
  H      519.027     -96.570      56.804
  H      519.798     -98.183      58.533
  H      522.855     -99.248      59.015
  H      522.610     -96.810      60.868
  H      523.274     -98.333      62.667
  H      521.549    -100.352      61.776
  H      519.586     -98.846      62.245
  H      520.802     -98.844      63.545
  P      524.418    -100.873      62.549
  C      523.236    -102.462      64.202
  O      523.227    -101.896      62.889
  O      525.005    -100.199      63.741
  O      525.508    -101.799      61.825
  H      526.157    -102.117      62.481
  H      522.401    -103.123      64.311
  H      523.169    -101.679      64.928
  H      524.145    -103.008      64.349

 6  7  8  9  10  11  12  13  14  15  16  26  31  32  33  34  35 0
 6-311+G(2d,p)
 ****
 36  37 0
 6-311+G(2d,p)
 ****
 1  2  3  4  5  17  18  19  20  21  22  23  24  25 0
 3-21G
 ****
 27  28  29  30  38  39  40  41  42  43  44  45 0
 3-21G
 ****


