%nproc=1
%NoSave
%Mem=1900MB
#P OB98/GEN NMR

erre ene a

0 1
  C     -615.108     353.325    -669.836
  O     -615.240     354.735    -669.809
  H     -614.859     352.976    -668.836
  H     -614.308     353.028    -670.519
  H     -616.051     352.860    -670.148
  P     -615.602     355.495    -671.176
  C     -613.559     356.773    -672.107
  O     -614.243     355.525    -672.026
  C     -612.770     357.020    -670.827
  O     -612.024     355.834    -670.468
  C     -611.753     358.160    -670.927
  O     -612.400     359.411    -670.751
  C     -610.820     357.802    -669.783
  O     -611.429     358.172    -668.526
  C     -610.747     356.264    -669.911
  N     -605.727     355.938    -670.555
  C     -606.455     356.576    -669.571
  N     -605.745     357.253    -668.643
  N     -607.757     356.561    -669.503
  C     -608.341     355.899    -670.531
  C     -607.732     355.248    -671.581
  C     -606.282     355.222    -671.605
  O     -605.594     354.653    -672.456
  N     -608.647     354.752    -672.474
  C     -609.814     355.069    -671.942
  N     -609.681     355.789    -670.775
  O     -616.266     356.830    -671.040
  O     -616.511     354.442    -671.973
  H     -611.350     359.134    -668.451
  H     -617.457     354.590    -671.794
  H     -604.718     355.997    -670.560
  H     -610.778     354.812    -672.369
  H     -610.631     355.769    -668.937
  H     -609.861     358.305    -669.833
  H     -604.786     357.528    -668.801
  H     -611.189     358.114    -671.866
  H     -606.258     357.761    -667.935
  H     -613.486     357.198    -670.012
  H     -614.315     357.555    -672.244
  H     -612.883     356.787    -672.966
  P     -611.704     360.777    -671.255
  C     -610.781     362.332    -669.400
  O     -610.618     361.115    -670.125
  O     -612.659     361.883    -671.551
  O     -610.803     360.334    -672.493
  H     -611.282     360.363    -673.358
  H     -609.992     362.429    -668.684
  H     -611.723     362.322    -668.893
  H     -610.750     363.158    -670.079

 6  7  8  9  10  11  12  13  14  15  26  29  33  34 0
 6-311+G(2d,p)
 ****
 36  38  39  40  41 0
 6-311+G(2d,p)
 ****
 1  2  3  4  5  16  17  18  19  20  21  22  23  24  25 0
 3-21G
 ****
 27  28  30  31  32  35  37  42  43  44  45  46  47 0
 3-21G
 ****
 48  49 0
 3-21G
 ****


