%nproc=1
%NoSave
%Mem=1900MB
#P OB98/GEN NMR

erre ene a

0 1
  C      484.628    -646.924    -667.665
  O      485.756    -646.282    -667.102
  H      483.775    -646.242    -667.615
  H      484.386    -647.829    -667.100
  H      484.823    -647.175    -668.711
  P      487.110    -647.142    -667.025
  C      488.582    -645.153    -667.763
  O      488.262    -646.058    -666.708
  C      489.724    -644.230    -667.339
  O      489.202    -643.256    -666.386
  C      490.897    -644.961    -666.666
  O      492.127    -644.325    -667.035
  C      490.643    -644.730    -665.188
  O      491.829    -644.856    -664.410
  C      490.034    -643.326    -665.208
  N      489.808    -640.574    -660.928
  C      490.618    -640.501    -662.008
  N      490.594    -641.270    -663.119
  C      489.566    -642.145    -663.074
  C      488.658    -642.329    -662.040
  C      488.823    -641.498    -660.907
  N      488.021    -641.582    -659.790
  N      487.784    -643.356    -662.349
  C      488.151    -643.771    -663.545
  N      489.235    -643.080    -664.015
  O      487.380    -648.030    -668.192
  O      486.949    -647.886    -665.609
  H      491.926    -645.792    -664.136
  H      486.663    -647.269    -664.914
  H      491.394    -639.743    -661.963
  H      487.678    -644.578    -664.107
  H      490.793    -642.534    -665.263
  H      489.916    -645.463    -664.821
  H      490.938    -646.016    -666.912
  H      490.065    -643.660    -668.224
  H      487.704    -644.550    -668.031
  H      488.202    -640.945    -659.037
  H      487.275    -642.264    -659.762
  H      488.878    -645.749    -668.636
  P      492.929    -644.866    -668.318
  C      493.496    -642.539    -669.286
  O      494.007    -643.754    -668.756
  O      492.078    -645.396    -669.427
  O      493.856    -646.015    -667.685
  H      493.852    -646.784    -668.303
  H      494.309    -641.889    -669.536
  H      492.873    -642.066    -668.556
  H      492.922    -642.747    -670.165

 6  7  8  9  10  11  12  13  14  15  25  28  32  33  34  35 0
 6-311+G(2d,p)
 ****
 36  39  40 0
 6-311+G(2d,p)
 ****
 1  2  3  4  5  16  17  18  19  20  21  22  23  24 0
 3-21G
 ****
 26  27  29  30  31  37  38  41  42  43  44  45  46  47 0
 3-21G
 ****
 48 0
 3-21G
 ****


