%nproc=1
%NoSave
%Mem=1900MB
#P OB98/GEN NMR

erre ene a

0 1
  C     -164.932       8.033     157.987
  O     -163.782       8.133     157.173
  H     -164.713       7.364     158.824
  H     -165.768       7.621     157.413
  H     -165.200       9.017     158.379
  P     -163.934       8.985     155.818
  C     -163.994       7.023     154.091
  O     -164.730       7.991     154.831
  C     -163.336       6.028     155.041
  O     -164.327       5.370     155.866
  C     -162.576       4.897     154.344
  O     -161.309       5.297     153.849
  C     -162.451       3.923     155.502
  O     -161.444       4.384     156.418
  C     -163.864       4.017     156.118
  N     -164.802       3.036     155.569
  C     -164.772       1.750     156.135
  O     -163.995       1.484     157.050
  N     -165.616       0.783     155.633
  C     -166.427       1.079     154.660
  N     -167.227       0.077     154.198
  C     -166.493       2.417     154.040
  C     -165.665       3.333     154.537
  O     -162.455       8.978     155.207
  O     -164.539      10.344     155.962
  H     -160.609       4.435     155.918
  H     -162.466       9.351     154.291
  H     -167.174       2.607     153.216
  H     -165.659       4.338     154.130
  H     -163.822       3.889     157.212
  H     -162.160       2.918     155.192
  H     -163.180       4.437     153.554
  H     -162.676       6.596     155.714
  H     -167.115      -0.841     154.597
  H     -163.235       7.550     153.507
  H     -167.776       0.165     153.347
  H     -164.665       6.487     153.412
  P     -160.641       4.375     152.716
  C     -158.303       3.451     153.402
  O     -159.715       3.302     153.466
  O     -159.581       5.355     152.024
  O     -161.610       3.799     151.721
  H     -159.508       5.165     151.066
  H     -157.836       2.659     153.950
  H     -158.024       4.392     153.828
  H     -157.986       3.413     152.381

 6  7  8  9  10  11  12  13  14  15  16  26  30  31  32  33  35 0
 6-311+G(2d,p)
 ****
 37  38 0
 6-311+G(2d,p)
 ****
 1  2  3  4  5  17  18  19  20  21  22  23  24  25 0
 3-21G
 ****
 27  28  29  34  36  39  40  41  42  43  44  45  46 0
 3-21G
 ****


