%nproc=1
%NoSave
%Mem=1900MB
#P OB98/GEN NMR

erre ene a

0 1
  C      107.586      86.026    -138.197
  O      108.321      85.347    -139.194
  H      106.821      86.658    -138.657
  H      107.092      85.288    -137.559
  H      108.253      86.635    -137.582
  P      109.135      86.254    -140.239
  C      107.024      86.466    -141.741
  O      108.031      87.140    -140.998
  C      106.041      87.483    -142.310
  O      105.421      88.230    -141.239
  C      106.675      88.524    -143.225
  O      106.871      88.034    -144.540
  C      105.610      89.607    -143.195
  O      104.510      89.231    -144.043
  C      105.180      89.580    -141.722
  N      104.911      94.028    -139.207
  C      104.014      93.367    -139.969
  N      104.165      92.190    -140.608
  C      105.392      91.690    -140.400
  C      106.414      92.254    -139.654
  C      106.135      93.481    -139.030
  N      107.053      94.165    -138.264
  N      107.547      91.462    -139.701
  C      107.199      90.425    -140.435
  N      105.910      90.521    -140.889
  O      109.597      85.211    -141.363
  O      110.276      87.029    -139.673
  H      104.890      89.018    -144.916
  H      110.352      85.572    -141.863
  H      103.047      93.851    -140.082
  H      107.839      89.583    -140.666
  H      104.112      89.790    -141.592
  H      105.972      90.574    -143.548
  H      107.605      88.923    -142.801
  H      105.249      86.933    -142.834
  H      106.490      85.777    -141.080
  H      106.817      95.114    -138.019
  H      108.008      93.838    -138.254
  H      107.493      85.897    -142.548
  P      108.214      88.477    -145.299
  C      106.917      90.401    -146.475
  O      108.023      90.027    -145.659
  O      108.089      87.745    -146.715
  O      109.478      88.126    -144.587
  H      108.971      87.584    -147.101
  H      106.926      91.460    -146.625
  H      106.005      90.117    -145.992
  H      106.988      89.906    -147.421

 6  7  8  9  10  11  12  13  14  15  25  28  32  33  34  35 0
 6-311+G(2d,p)
 ****
 36  39  40 0
 6-311+G(2d,p)
 ****
 1  2  3  4  5  16  17  18  19  20  21  22  23  24 0
 3-21G
 ****
 26  27  29  30  31  37  38  41  42  43  44  45  46  47 0
 3-21G
 ****
 48 0
 3-21G
 ****


