%nproc=1
%NoSave
%Mem=1900MB
#P OB98/GEN NMR

erre ene a

0 1
  C     -253.252    -894.460     -47.358
  O     -253.287    -895.580     -46.488
  P     -253.439    -895.490     -44.897
  C     -255.312    -897.210     -44.269
  O     -254.943    -895.850     -44.523
  C     -256.808    -897.370     -43.911
  O     -257.084    -896.690     -42.669
  C     -257.701    -896.750     -44.971
  O     -258.017    -897.450     -46.160
  C     -258.905    -896.230     -44.208
  O     -259.982    -897.160     -44.218
  C     -258.358    -896.040     -42.786
  N     -260.683    -891.830     -40.990
  C     -261.226    -893.080     -41.277
  N     -262.553    -893.210     -41.118
  N     -260.508    -894.100     -41.692
  C     -259.199    -893.790     -41.894
  C     -258.554    -892.600     -41.670
  C     -259.328    -891.500     -41.129
  O     -258.894    -890.400     -40.853
  N     -257.218    -892.670     -42.013
  C     -257.080    -893.910     -42.474
  N     -258.260    -894.630     -42.418
  O     -252.870    -894.270     -44.253
  O     -252.597    -896.780     -44.365
  H     -260.247    -897.290     -45.155
  H     -252.203    -896.490     -43.501
  H     -261.252    -891.100     -40.625
  H     -256.147    -894.320     -42.841
  H     -259.021    -896.490     -42.054
  H     -259.291    -895.300     -44.673
  H     -263.165    -892.450     -40.914
  H     -257.167    -895.830     -45.343
  H     -262.996    -894.030     -41.532
  H     -257.031    -898.440     -43.724
  H     -254.680    -897.570     -43.452
  H     -255.071    -897.830     -45.154
  P     -257.367    -897.230     -47.625
  C     -256.225    -899.520     -47.717
  O     -256.049    -898.130     -47.692
  O     -256.796    -895.730     -47.556
  O     -258.329    -897.380     -48.770
  H     -256.616    -895.400     -48.460
  H     -255.281    -900.000     -47.471
  H     -256.528    -899.830     -48.720
  H     -256.987    -899.830     -46.989
  H     -253.144    -894.796     -48.368
  H     -252.424    -893.834     -47.100
  H     -254.162    -893.905     -47.262

 3  4  5  6  7  8  9  10  11  12  23  26  30  31 0
 6-311+G(2d,p)
 ****
 33  35  36  37  38 0
 6-311+G(2d,p)
 ****
 1  2  13  14  15  16  17  18  19  20  21  22  24  25 0
 3-21G
 ****
 27  28  29  32  34  39  40  41  42  43  44  45  46  47  48  49 0
 3-21G
 ****


