%nproc=1
%NoSave
%Mem=1900MB
#P OB98/GEN NMR

erre ene a

0 1
  C     -305.720      -4.411     170.340
  O     -305.276      -3.870     171.571
  H     -306.746      -4.081     170.162
  H     -305.704      -5.504     170.382
  H     -305.086      -4.057     169.523
  P     -303.772      -4.223     172.006
  C     -303.292      -1.777     171.302
  O     -302.874      -3.134     171.240
  C     -302.278      -0.942     172.086
  O     -300.970      -1.050     171.497
  C     -302.592       0.548     172.128
  O     -303.569       0.834     173.118
  C     -301.230       1.113     172.501
  O     -301.013       0.968     173.918
  C     -300.263       0.198     171.728
  N     -296.183       1.785     169.037
  C     -296.335       1.480     170.346
  N     -297.455       1.109     170.999
  C     -298.505       1.062     170.160
  C     -298.504       1.346     168.802
  C     -297.270       1.714     168.234
  N     -297.122       2.015     166.896
  N     -299.768       1.194     168.269
  C     -300.509       0.772     169.277
  N     -299.796       0.711     170.451
  O     -303.367      -5.646     171.845
  O     -303.755      -3.677     173.512
  H     -301.177       0.034     174.147
  H     -304.260      -2.847     173.582
  H     -295.431       1.541     170.948
  H     -301.550       0.486     169.206
  H     -299.368      -0.033     172.315
  H     -301.145       2.179     172.275
  H     -302.879       0.926     171.139
  H     -302.214      -1.358     173.100
  H     -304.277      -1.703     171.771
  H     -296.248       2.432     166.609
  H     -297.954       2.083     166.329
  H     -303.368      -1.408     170.272
  P     -304.687       1.955     172.866
  C     -306.260       0.126     171.970
  O     -305.653       1.388     171.713
  O     -304.156       3.326     172.614
  O     -305.609       1.904     174.169
  H     -305.887       2.803     174.423
  H     -306.877      -0.149     171.140
  H     -306.860       0.192     172.853
  H     -305.500      -0.614     172.110

 6  7  8  9  10  11  12  13  14  15  25  28  32  33  34  35 0
 6-311+G(2d,p)
 ****
 36  39  40 0
 6-311+G(2d,p)
 ****
 1  2  3  4  5  16  17  18  19  20  21  22  23  24 0
 3-21G
 ****
 26  27  29  30  31  37  38  41  42  43  44  45  46  47 0
 3-21G
 ****
 48 0
 3-21G
 ****


