%nproc=1
%NoSave
%Mem=1900MB
#P OB98/GEN NMR

erre ene a

0 1
  C     -193.357     -13.300    -167.409
  O     -194.269     -12.292    -167.034
  P     -195.851     -12.522    -167.134
  C     -195.967     -13.229    -164.659
  O     -196.232     -13.604    -166.006
  C     -197.215     -12.602    -164.026
  O     -198.302     -13.580    -164.071
  C     -197.001     -12.201    -162.551
  O     -197.350     -10.848    -162.250
  C     -197.785     -13.261    -161.795
  O     -198.148     -12.883    -160.482
  C     -198.930     -13.554    -162.773
  N     -199.624     -14.803    -162.465
  C     -201.002     -14.738    -162.297
  O     -201.667     -13.711    -162.398
  N     -201.618     -15.904    -161.935
  C     -200.995     -17.073    -161.619
  O     -201.602     -18.053    -161.205
  C     -199.533     -17.071    -161.776
  C     -198.922     -15.964    -162.209
  O     -196.365     -12.847    -168.495
  O     -196.453     -11.172    -166.516
  H     -198.798     -12.159    -160.548
  H     -196.189     -10.989    -165.598
  H     -202.618     -15.871    -161.808
  H     -199.009     -17.982    -161.523
  H     -197.845     -15.932    -162.334
  H     -199.663     -12.746    -162.782
  H     -197.146     -14.150    -161.708
  H     -195.942     -12.268    -162.276
  H     -197.500     -11.737    -164.631
  H     -195.156     -12.498    -164.650
  H     -195.629     -14.102    -164.091
  P     -196.711      -9.975    -161.073
  C     -195.423      -8.607    -162.870
  O     -195.382      -9.280    -161.630
  O     -196.555     -10.683    -159.768
  O     -197.728      -8.745    -160.926
  H     -197.719      -8.421    -160.006
  H     -194.431      -8.648    -163.326
  H     -195.689      -7.558    -162.703
  H     -196.147      -9.062    -163.553
  H     -192.357     -12.947    -167.267
  H     -193.504     -13.549    -168.439
  H     -193.518     -14.169    -166.805

 3  4  5  6  7  8  9  10  11  12  13  23  28  29  30  31  32 0
 6-311+G(2d,p)
 ****
 33  34 0
 6-311+G(2d,p)
 ****
 1  2  14  15  16  17  18  19  20  21  22  24  25  26  27 0
 3-21G
 ****
 35  36  37  38  39  40  41  42  43  44  45 0
 3-21G
 ****


