%nproc=1
%NoSave
%Mem=1900MB
#P OB98/GEN NMR

erre ene a

0 1
  C      381.109     268.276    -376.564
  O      382.072     269.311    -376.576
  H      380.842     268.015    -375.536
  H      380.214     268.624    -377.086
  H      381.499     267.393    -377.080
  P      383.427     269.031    -375.762
  C      385.928     269.605    -376.129
  O      384.584     269.867    -376.500
  C      386.884     270.351    -377.054
  O      386.986     269.672    -378.323
  C      386.460     271.778    -377.396
  O      386.760     272.687    -376.341
  C      387.317     272.041    -378.622
  O      388.653     272.393    -378.215
  C      387.326     270.668    -379.320
  N      386.484     271.781    -384.264
  C      387.538     272.026    -383.451
  N      387.688     271.711    -382.150
  C      386.603     271.061    -381.686
  C      385.463     270.744    -382.391
  C      385.414     271.136    -383.742
  N      384.329     270.899    -384.554
  N      384.569     270.063    -381.592
  C      385.162     269.967    -380.422
  N      386.395     270.567    -380.425
  O      383.777     267.511    -376.132
  O      383.337     269.228    -374.285
  H      388.575     273.194    -377.664
  H      384.176     267.079    -375.350
  H      388.378     272.539    -383.912
  H      384.740     269.483    -379.549
  H      388.327     270.415    -379.693
  H      386.939     272.852    -379.245
  H      385.403     271.820    -377.673
  H      387.879     270.342    -376.588
  H      386.123     268.531    -376.204
  H      384.432     271.021    -385.549
  H      383.532     270.405    -384.156
  H      386.075     269.924    -375.090
  P      386.237     274.197    -376.498
  C      385.554     275.989    -374.747
  O      385.658     274.604    -375.058
  O      384.915     274.033    -377.390
  O      387.210     275.146    -377.113
  H      384.737     274.863    -377.877
  H      385.155     276.104    -373.761
  H      384.905     276.465    -375.452
  H      386.524     276.439    -374.794

 6  7  8  9  10  11  12  13  14  15  25  28  32  33  34  35 0
 6-311+G(2d,p)
 ****
 36  39  40 0
 6-311+G(2d,p)
 ****
 1  2  3  4  5  16  17  18  19  20  21  22  23  24 0
 3-21G
 ****
 26  27  29  30  31  37  38  41  42  43  44  45  46  47  48 0
 3-21G
 ****


