%nproc=1
%NoSave
%Mem=1900MB
#P OB98/GEN NMR

erre ene a

0 1
  C       45.694     135.555    -232.601
  O       44.277     135.737    -232.670
  P       43.674     136.307    -234.044
  C       43.490     134.071    -235.399
  O       42.830     135.099    -234.678
  C       42.768     133.812    -236.722
  O       43.443     132.778    -237.478
  C       41.333     133.328    -236.562
  O       40.471     134.386    -236.177
  C       41.070     132.754    -237.949
  O       40.743     133.806    -238.869
  C       42.440     132.145    -238.309
  N       42.473     130.694    -238.176
  C       41.351     130.016    -238.640
  O       40.369     130.587    -239.113
  N       41.385     128.654    -238.523
  C       42.397     127.922    -237.972
  O       42.375     126.700    -237.906
  C       43.535     128.696    -237.456
  C       43.525     130.027    -237.578
  O       44.990     136.389    -234.949
  O       42.941     137.594    -233.871
  H       45.620     135.670    -234.768
  H       40.758     133.406    -239.762
  H       40.586     128.142    -238.867
  H       44.346     128.150    -236.989
  H       44.354     130.614    -237.200
  H       42.705     132.395    -239.344
  H       40.239     132.044    -237.954
  H       41.295     132.525    -235.815
  H       42.793     134.740    -237.308
  H       43.502     133.148    -234.810
  H       44.529     134.369    -235.569
  P       39.409     134.065    -235.014
  C       40.429     134.217    -232.613
  O       39.886     134.889    -233.725
  O       39.777     132.548    -234.665
  O       37.988     134.278    -235.424
  H       40.734     132.397    -234.602
  H       40.999     134.932    -232.011
  H       41.096     133.406    -232.919
  H       39.619     133.811    -231.999
  H       45.958     135.173    -231.637
  H       46.182     136.494    -232.758
  H       46.002     134.862    -233.356

 3  4  5  6  7  8  9  10  11  12  13  24  28  29  30  31  32 0
 6-311+G(2d,p)
 ****
 33  34 0
 6-311+G(2d,p)
 ****
 1  2  14  15  16  17  18  19  20  21  22  23  25  26  27 0
 3-21G
 ****
 35  36  37  38  39  40  41  42  43  44  45 0
 3-21G
 ****


