%nproc=1
%NoSave
%Mem=1900MB
#P OB98/GEN NMR

erre ene a

0 1
  C     -945.251     454.591     154.066
  O     -946.277     454.760     155.032
  P     -946.556     453.617     156.117
  C     -948.258     452.172     154.817
  O     -946.921     452.274     155.316
  C     -948.688     450.706     154.711
  O     -947.792     449.990     153.818
  C     -948.639     449.949     156.031
  O     -949.756     450.296     156.864
  C     -948.628     448.513     155.534
  O     -949.959     448.066     155.228
  C     -947.774     448.619     154.257
  N     -944.633     444.588     154.363
  C     -945.984     444.692     154.308
  N     -946.749     445.803     154.313
  C     -945.985     446.893     154.436
  C     -944.604     446.956     154.545
  C     -943.914     445.740     154.482
  N     -942.530     445.635     154.477
  N     -944.190     448.279     154.679
  C     -945.287     448.977     154.669
  N     -946.399     448.201     154.459
  O     -947.510     453.980     157.210
  O     -945.107     453.288     156.715
  H     -950.449     448.028     156.077
  H     -945.100     453.472     157.669
  H     -946.522     443.748     154.220
  H     -945.351     450.049     154.785
  H     -948.183     448.017     153.433
  H     -948.227     447.814     156.290
  H     -947.706     450.171     156.550
  H     -949.705     450.687     154.283
  H     -948.303     452.642     153.831
  H     -942.149     444.716     154.287
  H     -941.986     446.472     154.266
  H     -948.936     452.723     155.486
  P     -949.632     450.174     158.447
  C     -950.802     447.917     158.787
  O     -949.562     448.610     158.792
  O     -950.637     450.968     159.214
  O     -948.134     450.666     158.753
  H     -948.117     451.118     159.611
  H     -951.341     448.122     159.717
  H     -950.594     446.846     158.744
  H     -951.417     448.204     157.928
  H     -945.214     455.452     153.431
  H     -945.456     453.722     153.477
  H     -944.310     454.472     154.562

 3  4  5  6  7  8  9  10  11  12  22  25  29  30  31  32 0
 6-311+G(2d,p)
 ****
 33  36  37 0
 6-311+G(2d,p)
 ****
 1  2  13  14  15  16  17  18  19  20  21  23  24  26 0
 3-21G
 ****
 27  28  34  35  38  39  40  41  42  43  44  45  46  47  48 0
 3-21G
 ****


