%nproc=1
%NoSave
%Mem=1900MB
#P OB98/GEN NMR

erre ene a

0 1
  C      164.713     539.643    -462.694
  O      164.787     541.011    -463.043
  H      165.623     539.145    -463.042
  H      163.855     539.172    -463.183
  H      164.639     539.521    -461.609
  P      163.645     542.002    -462.514
  C      165.115     542.942    -460.610
  O      164.388     543.229    -461.798
  C      166.447     543.688    -460.626
  O      167.320     543.137    -461.639
  C      166.323     545.171    -460.942
  O      165.850     545.897    -459.832
  C      167.753     545.494    -461.360
  O      168.584     545.701    -460.207
  C      168.158     544.210    -462.115
  N      168.067     544.349    -463.567
  C      169.263     544.294    -464.273
  O      170.360     544.166    -463.736
  N      169.158     544.423    -465.634
  C      168.019     544.701    -466.333
  O      167.996     544.899    -467.543
  C      166.787     544.776    -465.528
  C      166.869     544.600    -464.206
  O      162.554     541.370    -461.716
  O      163.072     542.667    -463.857
  H      168.260     546.517    -459.778
  H      162.202     542.271    -464.066
  H      170.020     544.396    -466.161
  H      165.860     544.986    -466.046
  H      165.969     544.656    -463.600
  H      169.189     543.932    -461.862
  H      167.811     546.400    -461.968
  H      165.663     545.311    -461.812
  H      166.936     543.542    -459.646
  H      165.299     541.863    -460.564
  H      164.513     543.242    -459.746
  P      165.174     547.335    -460.051
  C      162.957     546.088    -460.437
  O      163.599     547.182    -459.782
  O      165.533     548.027    -461.324
  O      165.666     548.181    -458.786
  H      166.181     548.953    -459.089
  H      161.917     546.084    -460.187
  H      163.404     545.170    -460.118
  H      163.069     546.191    -461.496

 6  7  8  9  10  11  12  13  14  15  16  26  31  32  33  34  35 0
 6-311+G(2d,p)
 ****
 36  37 0
 6-311+G(2d,p)
 ****
 1  2  3  4  5  17  18  19  20  21  22  23  24  25 0
 3-21G
 ****
 27  28  29  30  38  39  40  41  42  43  44  45 0
 3-21G
 ****


