%nproc=1
%NoSave
%Mem=1900MB
#P OB98/GEN NMR

erre ene a

0 1
  C        4.068     111.524      -0.889
  O        4.445     110.470      -1.753
  H        3.575     112.301      -1.481
  H        4.948     111.960      -0.406
  H        3.367     111.164      -0.131
  P        5.262     109.237      -1.140
  C        4.641     107.719      -3.142
  O        5.687     108.315      -2.381
  C        5.210     106.985      -4.354
  O        5.829     107.921      -5.261
  C        6.289     105.962      -4.014
  O        5.713     104.799      -3.455
  C        6.941     105.780      -5.375
  O        6.154     104.921      -6.214
  C        6.924     107.234      -5.914
  N        8.181     107.946      -5.703
  C        9.170     107.754      -6.676
  O        8.960     107.007      -7.631
  N       10.372     108.401      -6.525
  C       10.559     109.201      -5.522
  N       11.769     109.814      -5.433
  C        9.530     109.457      -4.493
  C        8.384     108.797      -4.636
  O        4.601     108.497      -0.018
  O        6.652     109.886      -0.680
  H        5.288     105.366      -6.322
  H        6.617     110.140       0.262
  H        9.727     110.142      -3.678
  H        7.576     108.929      -3.926
  H        6.708     107.241      -6.989
  H        7.934     105.335      -5.303
  H        7.028     106.401      -3.332
  H        4.375     106.513      -4.886
  H       12.435     109.622      -6.175
  H        3.979     108.528      -3.469
  H       11.967     110.572      -4.797
  H        4.059     107.028      -2.523
  P        6.512     103.889      -2.405
  C        4.359     103.922      -0.997
  O        5.389     103.118      -1.552
  O        7.535     104.605      -1.590
  O        7.121     102.717      -3.306
  H        7.914     103.040      -3.806
  H        3.676     103.302      -0.455
  H        3.837     104.426      -1.783
  H        4.788     104.644      -0.334

 6  7  8  9  10  11  12  13  14  15  16  26  30  31  32  33  35 0
 6-311+G(2d,p)
 ****
 37  38 0
 6-311+G(2d,p)
 ****
 1  2  3  4  5  17  18  19  20  21  22  23  24  25 0
 3-21G
 ****
 27  28  29  34  36  39  40  41  42  43  44  45  46 0
 3-21G
 ****


