%nproc=1
%NoSave
%Mem=1900MB
#P OB98/GEN NMR

erre ene a

0 1
  C     -415.923      12.194    -184.860
  O     -415.567      13.479    -184.333
  P     -416.681      14.635    -184.474
  C     -416.772      16.877    -185.789
  O     -416.300      15.535    -185.754
  C     -416.909      17.393    -187.226
  O     -415.592      17.524    -187.810
  C     -417.726      16.496    -188.160
  O     -418.485      17.328    -189.051
  C     -416.668      15.793    -188.986
  O     -417.178      15.316    -190.229
  C     -415.626      16.898    -189.103
  N     -411.794      17.397    -192.382
  C     -412.934      18.166    -192.228
  N     -413.085      19.198    -193.087
  N     -413.849      17.943    -191.319
  C     -413.547      16.893    -190.503
  C     -412.452      16.065    -190.545
  C     -411.473      16.299    -191.589
  O     -410.470      15.620    -191.807
  N     -412.501      15.113    -189.552
  C     -413.634      15.364    -188.921
  N     -414.308      16.431    -189.467
  O     -416.377      15.586    -183.222
  O     -418.082      14.126    -184.448
  H     -417.793      15.994    -190.567
  H     -417.179      15.677    -182.679
  H     -411.136      17.597    -193.112
  H     -414.024      14.794    -188.087
  H     -415.930      17.657    -189.838
  H     -416.283      14.929    -188.423
  H     -412.393      19.461    -193.772
  H     -418.400      15.798    -187.648
  H     -413.894      19.797    -192.969
  H     -417.346      18.401    -187.186
  H     -416.083      17.522    -185.236
  H     -417.742      16.913    -185.281
  P     -420.049      16.995    -189.193
  C     -421.409      15.379    -190.711
  O     -420.172      16.019    -190.456
  O     -420.677      18.373    -189.711
  O     -420.686      16.518    -187.925
  H     -421.611      18.442    -189.442
  H     -422.219      15.788    -190.106
  H     -421.307      14.311    -190.498
  H     -421.659      15.502    -191.771
  H     -415.113      11.511    -184.712
  H     -416.128      12.282    -185.906
  H     -416.793      11.830    -184.355

 3  4  5  6  7  8  9  10  11  12  23  26  30  31  33  0
 6-311+G(2d,p)
 ****
 35  36  37  38 0
 6-311+G(2d,p)
 ****
 1  2  13  14  15  16  17  18  19  20  21  22  24  25  27  28  29 0
 3-21G
 ****
 32  34  39  40  41  42  43  44  45  46  47  48  49 0
 3-21G
 ****


