%nproc=1
%NoSave
%Mem=1900MB
#P OB98/GEN NMR

erre ene a

0 1
  C     -136.230     138.231      -7.570
  O     -137.385     137.856      -8.306
  P     -138.811     138.194      -7.641
  C     -138.834     135.825      -6.528
  O     -138.950     137.235      -6.360
  C     -138.812     135.149      -5.156
  O     -137.768     135.711      -4.336
  C     -140.108     135.301      -4.366
  O     -141.063     134.348      -4.794
  C     -139.613     135.084      -2.935
  O     -139.478     133.680      -2.647
  C     -138.246     135.777      -2.959
  N     -137.009     138.911       0.821
  C     -136.992     137.526       0.766
  N     -136.529     136.888       1.867
  N     -137.378     136.834      -0.273
  C     -137.824     137.596      -1.295
  C     -137.910     138.974      -1.353
  C     -137.424     139.727      -0.223
  O     -137.325     140.952      -0.166
  N     -138.433     139.390      -2.548
  C     -138.638     138.273      -3.218
  N     -138.270     137.164      -2.511
  O     -139.849     137.590      -8.697
  O     -139.053     139.640      -7.356
  H     -139.279     133.564      -1.697
  H     -140.200     138.293      -9.278
  H     -136.679     139.388       1.639
  H     -139.035     138.224      -4.224
  H     -137.508     135.256      -2.339
  H     -140.311     135.486      -2.195
  H     -136.234     137.353       2.707
  H     -140.501     136.320      -4.468
  H     -136.512     135.879       1.844
  H     -138.577     134.085      -5.314
  H     -137.903     135.604      -7.052
  H     -139.672     135.462      -7.122
  P     -142.546     134.473      -4.194
  C     -142.155     132.671      -2.359
  O     -142.473     134.017      -2.660
  O     -143.331     133.275      -4.916
  O     -143.208     135.779      -4.450
  H     -144.249     133.539      -5.096
  H     -141.648     132.638      -1.391
  H     -141.500     132.232      -3.119
  H     -143.079     132.089      -2.300
  H     -135.353     137.953      -8.116
  H     -136.233     137.733      -6.623
  H     -136.234     139.290      -7.416

 3  4  5  6  7  8  9  10  11  12  23  26  30  31 0
 6-311+G(2d,p)
 ****
 33  35  36  37  38 0
 6-311+G(2d,p)
 ****
 1  2  13  14  15  16  17  18  19  20  21  22  24  25 0
 3-21G
 ****
 27  28  29  32  34  39  40  41  42  43  44  45  46  47  48  49 0
 3-21G
 ****


