%nproc=1
%NoSave
%Mem=1900MB
#P OB98/GEN NMR

erre ene a

0 1
  C      -93.216      92.347      80.443
  O      -93.803      93.428      79.749
  H      -93.725      92.227      81.403
  H      -92.157      92.546      80.629
  H      -93.325      91.426      79.867
  P      -93.159      93.814      78.330
  C      -91.063      94.705      79.581
  O      -91.570      93.872      78.548
  C      -89.547      94.806      79.461
  O      -89.064      95.925      80.241
  C      -88.799      93.592      79.990
  O      -88.817      92.509      79.076
  C      -87.408      94.172      80.189
  O      -86.653      94.163      78.965
  C      -87.712      95.618      80.639
  N      -87.511      95.801      82.074
  C      -86.232      96.191      82.458
  O      -85.311      96.372      81.659
  N      -86.027      96.326      83.804
  C      -86.947      96.080      84.783
  O      -86.676      96.151      85.978
  C      -88.286      95.685      84.316
  C      -88.501      95.556      83.004
  O      -93.576      95.348      78.150
  O      -93.603      92.970      77.184
  H      -94.321      95.419      77.523
  H      -87.196      94.642      78.308
  H      -85.103      96.597      84.104
  H      -89.042      95.488      85.067
  H      -89.476      95.246      82.639
  H      -87.060      96.327      80.114
  H      -86.834      93.601      80.918
  H      -89.198      93.294      80.967
  H      -89.294      94.987      78.407
  H      -91.316      94.272      80.556
  H      -91.529      95.693      79.505
  P      -88.504      91.035      79.628
  C      -86.047      90.965      78.698
  O      -86.914      90.945      79.818
  O      -88.793      90.150      78.329
  O      -89.300      90.665      80.833
  H      -88.535      90.593      77.503
  H      -85.033      90.896      79.031
  H      -86.183      91.878      78.158
  H      -86.270      90.136      78.059

 6  7  8  9  10  11  12  13  14  15  16  27  31  32  33  34  35 0
 6-311+G(2d,p)
 ****
 36  37 0
 6-311+G(2d,p)
 ****
 1  2  3  4  5  17  18  19  20  21  22  23  24  25 0
 3-21G
 ****
 26  28  29  30  38  39  40  41  42  43  44  45 0
 3-21G
 ****


