%nproc=1
%NoSave
%Mem=1900MB
#P OB98/GEN NMR

erre ene a

0 1
  C      -23.779     -16.446      -2.472
  O      -24.279     -15.121      -2.478
  P      -24.437     -14.355      -1.077
  C      -26.951     -15.088      -0.855
  O      -25.648     -15.068      -0.302
  C      -27.967     -15.549       0.195
  O      -27.530     -16.822       0.746
  C      -28.152     -14.579       1.369
  O      -29.530     -14.642       1.759
  C      -27.265     -15.181       2.446
  O      -27.630     -14.766       3.752
  C      -27.468     -16.677       2.180
  N      -26.405     -17.516       2.735
  C      -26.570     -18.002       4.029
  O      -27.544     -17.750       4.736
  N      -25.546     -18.781       4.505
  C      -24.377     -19.058       3.860
  O      -23.485     -19.747       4.343
  C      -24.238     -18.477       2.516
  C      -25.245     -17.755       2.021
  O      -25.048     -12.958      -1.555
  O      -23.168     -14.257      -0.300
  H      -25.655     -13.046      -2.310
  H      -27.594     -13.792       3.781
  H      -25.661     -19.176       5.428
  H      -23.317     -18.662       1.977
  H      -25.167     -17.316       1.033
  H      -28.437     -17.000       2.577
  H      -26.225     -14.881       2.271
  H      -27.885     -13.551       1.110
  H      -28.926     -15.726      -0.310
  H      -26.975     -15.779      -1.702
  H      -27.201     -14.089      -1.228
  P      -30.193     -13.333       2.422
  C      -30.696     -14.310       4.799
  O      -29.947     -13.421       4.002
  O      -31.749     -13.702       2.283
  O      -29.841     -12.044       1.756
  H      -31.953     -14.600       2.589
  H      -30.169     -14.466       5.745
  H      -30.822     -15.278       4.307
  H      -31.677     -13.876       5.011
  H      -23.734     -16.815      -3.475
  H      -24.427     -17.069      -1.892
  H      -22.798     -16.455      -2.044

 3  4  5  6  7  8  9  10  11  12  13  24  28  29  30  31  32 0
 6-311+G(2d,p)
 ****
 33  34 0
 6-311+G(2d,p)
 ****
 1  2  14  15  16  17  18  19  20  21  22  23  25  26  27 0
 3-21G
 ****
 35  36  37  38  39  40  41  42  43  44  45 0
 3-21G
 ****


