%nproc=1
%NoSave
%Mem=1900MB
#P OB98/GEN NMR

erre ene a

0 1
  C     -229.242    -247.434      40.402
  O     -228.682    -246.419      39.588
  P     -229.613    -245.365      38.832
  C     -229.037    -245.946      36.336
  O     -229.972    -245.951      37.392
  C     -229.725    -246.447      35.059
  O     -230.124    -247.822      35.216
  C     -230.973    -245.627      34.737
  O     -230.668    -244.589      33.822
  C     -231.919    -246.671      34.173
  O     -231.622    -246.924      32.788
  C     -231.563    -247.908      35.034
  N     -232.186    -248.032      36.365
  C     -232.672    -249.266      36.786
  O     -232.588    -250.294      36.122
  N     -233.291    -249.276      38.012
  C     -233.422    -248.204      38.846
  O     -234.177    -248.165      39.813
  C     -232.658    -247.011      38.470
  C     -232.106    -246.972      37.258
  O     -228.607    -244.165      38.502
  O     -230.808    -244.899      39.597
  H     -230.665    -247.092      32.726
  H     -228.700    -243.449      39.157
  H     -233.768    -250.137      38.260
  H     -232.618    -246.186      39.166
  H     -231.565    -246.083      36.939
  H     -231.777    -248.837      34.490
  H     -232.952    -246.326      34.205
  H     -231.409    -245.221      35.660
  H     -229.011    -246.395      34.227
  H     -228.185    -246.587      36.586
  H     -228.648    -244.935      36.185
  P     -231.710    -243.394      33.601
  C     -231.850    -243.389      31.041
  O     -232.489    -243.761      32.247
  O     -231.137    -242.017      33.661
  O     -232.794    -243.638      34.757
  H     -232.600    -243.058      35.521
  H     -232.384    -243.845      30.205
  H     -230.813    -243.736      31.032
  H     -231.879    -242.301      30.926
  H     -228.458    -248.032      40.816
  H     -229.887    -248.050      39.811
  H     -229.805    -246.986      41.194

 3  4  5  6  7  8  9  10  11  12  13  23  28  29  30  31  32 0
 6-311+G(2d,p)
 ****
 33  34 0
 6-311+G(2d,p)
 ****
 1  2  14  15  16  17  18  19  20  21  22  24  25  26  27 0
 3-21G
 ****
 35  36  37  38  39  40  41  42  43  44  45 0
 3-21G
 ****


