%nproc=1
%NoSave
%Mem=1900MB
#P OB98/GEN NMR

erre ene a

0 1
  C      796.026    -628.522    1484.687
  O      794.866    -629.242    1484.335
  H      795.737    -627.574    1485.136
  H      796.640    -628.323    1483.804
  H      796.616    -629.095    1485.426
  P      795.083    -630.666    1483.626
  C      795.496    -631.385    1481.163
  O      795.184    -630.320    1482.057
  C      794.770    -631.175    1479.836
  O      795.342    -630.054    1479.120
  C      794.879    -632.368    1478.878
  O      793.875    -633.334    1479.184
  C      794.590    -631.696    1477.537
  O      793.174    -631.519    1477.374
  C      795.288    -630.323    1477.702
  N      798.353    -627.596    1474.633
  C      797.012    -627.520    1474.853
  N      796.258    -628.320    1475.649
  C      797.014    -629.251    1476.247
  C      798.389    -629.433    1476.111
  C      799.068    -628.537    1475.271
  N      800.430    -628.613    1475.040
  N      798.815    -630.501    1476.880
  C      797.728    -630.911    1477.506
  N      796.608    -630.206    1477.143
  O      794.120    -631.742    1484.009
  O      796.627    -630.968    1484.007
  H      792.765    -632.411    1477.496
  H      797.157    -630.154    1483.946
  H      796.499    -626.725    1474.327
  H      797.714    -631.693    1478.273
  H      794.666    -629.510    1477.251
  H      794.951    -632.284    1476.686
  H      795.881    -632.793    1478.859
  H      793.723    -630.943    1480.033
  H      795.183    -632.336    1481.607
  H      800.807    -628.077    1474.274
  H      800.925    -629.407    1475.418
  H      796.575    -631.405    1481.031
  P      793.865    -634.777    1478.473
  C      793.387    -635.604    1476.090
  O      793.442    -634.479    1476.946
  O      793.052    -635.807    1479.175
  O      795.421    -635.164    1478.348
  H      795.518    -636.122    1478.164
  H      793.098    -635.291    1475.108
  H      792.671    -636.304    1476.467
  H      794.351    -636.067    1476.048

 6  7  8  9  10  11  12  13  14  15  25  28  32  33  34  35 0
 6-311+G(2d,p)
 ****
 36  39  40 0
 6-311+G(2d,p)
 ****
 1  2  3  4  5  16  17  18  19  20  21  22  23  24 0
 3-21G
 ****
 26  27  29  30  31  37  38  41  42  43  44  45  46  47 0
 3-21G
 ****
 48 0
 3-21G
 ****


