%nproc=1
%NoSave
%Mem=1900MB
#P OB98/GEN NMR

erre ene a

0 1
  C      395.281      82.607      30.920
  O      394.789      81.268      31.047
  P      395.894      80.136      31.328
  C      394.981      79.549      33.683
  O      395.265      79.083      32.372
  C      394.312      78.459      34.529
  O      392.877      78.414      34.285
  C      394.856      77.050      34.260
  O      394.821      76.342      35.507
  C      393.812      76.461      33.328
  O      393.883      75.038      33.289
  C      392.548      77.046      33.952
  N      387.691      75.687      33.653
  C      388.606      75.508      34.671
  N      388.142      74.927      35.799
  N      389.859      75.870      34.598
  C      390.170      76.474      33.423
  C      389.355      76.728      32.343
  C      387.971      76.290      32.434
  O      387.124      76.432      31.561
  N      390.027      77.394      31.348
  C      391.263      77.477      31.807
  N      391.392      76.991      33.079
  O      397.000      80.914      32.187
  O      396.470      79.536      30.093
  H      394.755      74.800      32.908
  H      397.751      81.162      31.620
  H      386.743      75.376      33.757
  H      392.097      77.906      31.271
  H      392.261      76.523      34.876
  H      393.955      76.839      32.306
  H      387.180      74.668      35.945
  H      395.864      77.025      33.837
  H      388.783      74.817      36.578
  H      394.456      78.713      35.588
  H      394.318      80.418      33.637
  H      395.908      79.899      34.148
  P      396.174      75.650      36.009
  C      395.968      76.410      38.479
  O      395.992      75.326      37.568
  O      397.225      76.863      36.001
  O      396.652      74.523      35.157
  H      398.092      76.539      35.694
  H      395.399      76.113      39.361
  H      395.504      77.297      38.039
  H      396.993      76.651      38.781
  H      394.463      83.272      30.736
  H      395.972      82.657      30.105
  H      395.776      82.893      31.825

 3  4  5  6  7  8  9  10  11  12  23  26  30  31 0
 6-311+G(2d,p)
 ****
 33  35  36  37  38 0
 6-311+G(2d,p)
 ****
 1  2  13  14  15  16  17  18  19  20  21  22  24  25 0
 3-21G
 ****
 27  28  29  32  34  39  40  41  42  43  44  45  46  47  48  49 0
 3-21G
 ****


