%nproc=1
%NoSave
%Mem=1900MB
#P OB98/GEN NMR

erre ene a

0 1
  C     -201.270     304.473    -124.610
  O     -201.551     304.051    -125.949
  P     -200.438     303.420    -126.919
  C     -201.213     304.850    -128.922
  O     -200.116     304.455    -128.099
  C     -200.811     305.949    -129.906
  O     -200.515     307.172    -129.208
  C     -199.569     305.646    -130.734
  O     -199.854     304.723    -131.770
  C     -199.187     307.045    -131.213
  O     -199.957     307.427    -132.363
  C     -199.555     307.911    -129.990
  N     -198.394     308.284    -129.198
  C     -198.127     309.651    -129.083
  O     -198.824     310.474    -129.676
  N     -197.062     310.052    -128.308
  C     -196.292     309.164    -127.768
  N     -195.256     309.620    -127.008
  C     -196.480     307.711    -127.940
  C     -197.543     307.350    -128.659
  O     -200.751     302.037    -127.388
  O     -199.091     303.420    -126.050
  H     -199.778     308.375    -132.509
  H     -198.534     302.667    -126.327
  H     -195.798     307.005    -127.497
  H     -197.762     306.300    -128.828
  H     -200.070     308.824    -130.313
  H     -198.131     307.118    -131.494
  H     -198.778     305.255    -130.083
  H     -201.670     306.139    -130.566
  H     -195.158     310.619    -126.903
  H     -202.013     305.222    -128.270
  H     -194.600     309.013    -126.543
  H     -201.581     303.971    -129.463
  P     -199.162     303.279    -131.761
  C     -196.865     304.154    -132.498
  O     -197.602     303.492    -131.485
  O     -199.490     302.401    -132.925
  O     -199.674     302.622    -130.389
  H     -199.745     301.659    -130.507
  H     -195.966     304.588    -132.051
  H     -197.455     304.953    -132.955
  H     -196.572     303.432    -133.263
  H     -202.163     304.858    -124.163
  H     -200.521     305.237    -124.627
  H     -200.916     303.639    -124.040

 3  4  5  6  7  8  9  10  11  12  13  23  27  28  29  30  32 0
 6-311+G(2d,p)
 ****
 34  35 0
 6-311+G(2d,p)
 ****
 1  2  14  15  16  17  18  19  20  21  22  24  25  26 0
 3-21G
 ****
 31  33  36  37  38  39  40  41  42  43  44  45  46 0
 3-21G
 ****


