%nproc=1
%NoSave
%Mem=1900MB
#P OB98/GEN NMR

erre ene a

0 1
  C      191.110    -187.665     351.185
  O      192.120    -186.702     351.407
  H      191.166    -188.423     351.971
  H      191.250    -188.150     350.215
  H      190.124    -187.189     351.223
  P      192.268    -185.554     350.290
  C      194.259    -186.970     349.380
  O      193.046    -186.289     349.091
  C      195.392    -186.382     348.542
  O      196.665    -186.920     348.952
  C      195.282    -186.676     347.050
  O      194.347    -185.843     346.391
  C      196.709    -186.389     346.609
  O      196.912    -184.967     346.548
  C      197.512    -187.017     347.774
  N      197.892    -188.407     347.521
  C      198.896    -188.620     346.568
  O      199.407    -187.673     345.973
  N      199.272    -189.913     346.282
  C      198.709    -190.903     346.897
  N      199.111    -192.165     346.563
  C      197.664    -190.722     347.918
  C      197.303    -189.470     348.178
  O      193.390    -184.583     350.892
  O      191.007    -184.863     349.889
  H      196.170    -184.597     346.034
  H      193.644    -183.907     350.220
  H      197.209    -191.579     348.399
  H      196.538    -189.256     348.919
  H      198.420    -186.437     347.975
  H      196.939    -186.792     345.623
  H      195.068    -187.739     346.865
  H      195.421    -185.296     348.731
  H      199.784    -192.258     345.817
  H      194.129    -188.032     349.141
  H      198.607    -192.989     346.854
  H      194.506    -186.871     350.443
  P      193.318    -186.542     345.367
  C      194.226    -185.421     343.204
  O      194.058    -186.628     343.941
  O      192.207    -185.410     345.143
  O      192.718    -187.827     345.854
  H      191.316    -185.800     345.085
  H      194.730    -185.632     342.284
  H      194.807    -184.730     343.779
  H      193.267    -184.994     342.996

 6  7  8  9  10  11  12  13  14  15  16  26  30  31  32  33  35 0
 6-311+G(2d,p)
 ****
 37  38 0
 6-311+G(2d,p)
 ****
 1  2  3  4  5  17  18  19  20  21  22  23  24  25 0
 3-21G
 ****
 27  28  29  34  36  39  40  41  42  43  44  45  46 0
 3-21G
 ****


