%nproc=1
%NoSave
%Mem=1900MB
#P OB98/GEN NMR

erre ene a

0 1
  C     -197.959     337.616     482.607
  O     -197.196     338.744     483.003
  P     -197.891     340.002     483.713
  C     -199.370     340.932     481.744
  O     -198.239     341.074     482.588
  C     -199.476     342.161     480.835
  O     -199.962     343.297     481.588
  C     -198.120     342.535     480.245
  O     -197.957     341.954     478.952
  C     -198.171     344.048     480.216
  O     -198.908     344.509     479.068
  C     -198.962     344.360     481.505
  N     -198.223     344.379     482.788
  C     -197.342     345.427     483.056
  O     -197.145     346.360     482.285
  N     -196.650     345.336     484.238
  C     -196.802     344.348     485.172
  O     -196.023     344.143     486.094
  C     -197.930     343.443     484.965
  C     -198.565     343.484     483.792
  O     -196.673     340.676     484.503
  O     -199.042     339.677     484.609
  H     -199.836     344.203     479.171
  H     -196.692     340.419     485.445
  H     -195.908     346.005     484.370
  H     -198.182     342.731     485.748
  H     -199.384     342.793     483.595
  H     -199.500     345.310     481.429
  H     -197.173     344.474     480.128
  H     -197.306     342.226     480.907
  H     -200.203     341.952     480.036
  H     -200.271     340.823     482.352
  H     -199.270     340.021     481.144
  P     -196.538     341.349     478.527
  C     -195.600     343.617     477.793
  O     -196.001     342.330     477.381
  O     -196.537     339.894     478.187
  O     -195.611     341.677     479.788
  H     -195.543     340.880     480.371
  H     -195.094     344.112     476.962
  H     -194.916     343.562     478.644
  H     -196.484     344.210     478.061
  H     -197.315     336.891     482.155
  H     -198.704     337.919     481.902
  H     -198.433     337.187     483.465

 3  4  5  6  7  8  9  10  11  12  13  23  28  29  30  31  32 0
 6-311+G(2d,p)
 ****
 33  34 0
 6-311+G(2d,p)
 ****
 1  2  14  15  16  17  18  19  20  21  22  24  25  26  27 0
 3-21G
 ****
 35  36  37  38  39  40  41  42  43  44  45 0
 3-21G
 ****


