%nproc=1
%NoSave
%Mem=1900MB
#P OB98/GEN NMR

erre ene a

0 1
  C       47.106    -290.675    -183.098
  O       48.356    -291.080    -182.538
  P       48.542    -291.053    -180.947
  C       50.734    -289.751    -181.251
  O       50.097    -290.845    -180.608
  C       52.195    -290.057    -181.621
  O       52.962    -290.411    -180.432
  C       52.365    -291.203    -182.628
  O       53.481    -290.864    -183.458
  C       52.703    -292.380    -181.729
  O       53.306    -293.448    -182.439
  C       53.583    -291.685    -180.688
  N       53.725    -292.467    -179.467
  C       54.733    -293.433    -179.442
  O       55.392    -293.666    -180.458
  N       54.948    -294.128    -178.276
  C       54.128    -293.975    -177.279
  N       54.385    -294.665    -176.136
  C       52.945    -293.095    -177.338
  C       52.821    -292.362    -178.440
  O       47.880    -292.170    -180.203
  O       47.903    -289.637    -180.539
  H       54.257    -293.244    -182.578
  H       47.469    -289.726    -179.665
  H       52.243    -293.067    -176.516
  H       51.993    -291.681    -178.577
  H       54.583    -291.488    -181.093
  H       51.782    -292.761    -181.265
  H       51.485    -291.362    -183.256
  H       52.637    -289.139    -182.030
  H       55.186    -295.285    -176.117
  H       50.706    -288.879    -180.593
  H       53.821    -294.563    -175.300
  H       50.157    -289.473    -182.142
  P       53.206    -290.328    -184.945
  C       53.782    -292.125    -186.735
  O       54.238    -291.061    -185.930
  O       53.818    -288.841    -184.874
  O       51.779    -290.274    -185.374
  H       53.380    -288.290    -185.551
  H       54.516    -292.310    -187.522
  H       52.824    -291.889    -187.202
  H       53.681    -293.031    -186.127
  H       47.151    -290.752    -184.164
  H       46.903    -289.661    -182.822
  H       46.327    -291.308    -182.727

 3  4  5  6  7  8  9  10  11  12  13  23  27  28  29  30  32 0
 6-311+G(2d,p)
 ****
 34  35 0
 6-311+G(2d,p)
 ****
 1  2  14  15  16  17  18  19  20  21  22  24  25  26 0
 3-21G
 ****
 31  33  36  37  38  39  40  41  42  43  44  45  46 0
 3-21G
 ****


