%nproc=1
%NoSave
%Mem=1900MB
#P OB98/GEN NMR

erre ene a

0 1
  C      -45.981      37.215     -13.593
  O      -44.826      37.818     -13.043
  H      -46.280      36.383     -12.950
  H      -45.781      36.830     -14.596
  H      -46.799      37.940     -13.629
  P      -44.029      38.883     -13.941
  C      -45.512      40.660     -12.804
  O      -44.993      40.167     -14.036
  C      -45.639      42.182     -12.827
  O      -46.478      42.641     -11.745
  C      -44.323      42.920     -12.637
  O      -43.404      42.767     -13.693
  C      -44.798      44.314     -12.260
  O      -45.142      45.100     -13.400
  C      -46.069      43.992     -11.436
  N      -45.863      44.177     -10.004
  C      -46.794      44.977      -9.353
  O      -47.733      45.530      -9.924
  N      -46.593      45.155      -8.011
  C      -45.549      44.659      -7.287
  O      -45.414      44.872      -6.088
  C      -44.574      43.853      -8.037
  C      -44.773      43.649      -9.342
  O      -43.554      38.381     -15.273
  O      -42.850      39.386     -12.985
  H      -44.317      45.247     -13.903
  H      -42.149      39.857     -13.500
  H      -47.266      45.720      -7.517
  H      -43.727      43.454      -7.498
  H      -44.068      43.055      -9.918
  H      -46.897      44.644     -11.745
  H      -44.042      44.869     -11.700
  H      -43.826      42.511     -11.748
  H      -46.124      42.468     -13.766
  H      -44.817      40.368     -12.009
  H      -46.486      40.201     -12.609
  P      -42.141      43.714     -13.914
  C      -41.280      42.980     -11.557
  O      -41.489      44.037     -12.486
  O      -42.309      44.840     -14.881
  O      -41.069      42.684     -14.546
  H      -40.526      43.190     -15.182
  H      -40.840      43.372     -10.664
  H      -40.625      42.251     -11.987
  H      -42.218      42.522     -11.321

 6  7  8  9  10  11  12  13  14  15  16  26  31  32  33  34  35 0
 6-311+G(2d,p)
 ****
 36  37 0
 6-311+G(2d,p)
 ****
 1  2  3  4  5  17  18  19  20  21  22  23  24  25 0
 3-21G
 ****
 27  28  29  30  38  39  40  41  42  43  44  45 0
 3-21G
 ****


