%nproc=1
%NoSave
%Mem=1900MB
#P OB98/GEN NMR

erre ene a

0 1
  C       99.506    -218.930     -70.274
  O       99.021    -219.455     -71.492
  H       99.073    -219.502     -69.451
  H       99.210    -217.883     -70.164
  H      100.595    -219.018     -70.229
  P       99.452    -218.749     -72.865
  C      101.629    -219.855     -73.712
  O      100.206    -219.865     -73.743
  C      102.181    -221.161     -74.298
  O      101.859    -222.231     -73.372
  C      101.562    -221.498     -75.664
  O      102.541    -221.751     -76.671
  C      100.573    -222.611     -75.330
  O      100.293    -223.483     -76.406
  C      101.202    -223.281     -74.106
  N      100.238    -223.979     -73.255
  C      100.678    -225.121     -72.588
  O      101.815    -225.581     -72.655
  N       99.739    -225.749     -71.812
  C       98.439    -225.366     -71.645
  O       97.649    -225.967     -70.930
  C       98.027    -224.169     -72.395
  C       98.930    -223.540     -73.153
  O      100.197    -217.463     -72.722
  O       98.072    -218.547     -73.650
  H      100.111    -222.923     -77.191
  H       97.813    -217.606     -73.614
  H      100.048    -226.570     -71.312
  H       97.000    -223.845     -72.296
  H       98.660    -222.652     -73.718
  H      101.957    -224.008     -74.413
  H       99.621    -222.151     -75.034
  H      101.009    -220.639     -76.063
  H      103.273    -221.088     -74.355
  H      101.940    -219.747     -72.666
  H      102.006    -219.003     -74.286
  P      102.461    -221.236     -78.178
  C      102.840    -218.642     -77.950
  O      103.354    -219.916     -78.315
  O      101.096    -221.191     -78.781
  O      103.317    -222.332     -79.000
  H      102.907    -222.392     -79.888
  H      103.588    -217.895     -78.115
  H      102.567    -218.651     -76.915
  H      101.978    -218.421     -78.545

 6  7  8  9  10  11  12  13  14  15  16  26  31  32  33  34  35 0
 6-311+G(2d,p)
 ****
 36  37 0
 6-311+G(2d,p)
 ****
 1  2  3  4  5  17  18  19  20  21  22  23  24  25 0
 3-21G
 ****
 27  28  29  30  38  39  40  41  42  43  44  45 0
 3-21G
 ****


