%nproc=1
%NoSave
%Mem=1900MB
#P OB98/GEN NMR

erre ene a

0 1
  C     -348.774     840.616    -351.949
  O     -348.075     840.118    -353.080
  H     -349.778     840.938    -352.237
  H     -348.851     839.817    -351.208
  H     -348.229     841.457    -351.510
  P     -347.825     841.150    -354.282
  C     -349.164     841.853    -356.400
  O     -349.158     841.128    -355.179
  C     -350.583     841.975    -356.941
  O     -351.104     840.670    -357.262
  C     -351.579     842.605    -355.970
  O     -351.486     844.022    -355.947
  C     -352.895     842.133    -356.590
  O     -353.228     842.972    -357.716
  C     -352.545     840.719    -357.070
  N     -356.042     837.128    -356.005
  C     -355.893     837.961    -357.066
  N     -354.918     838.871    -357.289
  C     -354.032     838.872    -356.276
  C     -354.037     838.077    -355.148
  C     -355.112     837.168    -355.022
  N     -355.289     836.372    -353.906
  N     -352.958     838.379    -354.325
  C     -352.334     839.358    -354.952
  N     -352.935     839.677    -356.134
  O     -346.745     840.389    -355.187
  O     -347.348     842.504    -353.869
  H     -353.229     843.893    -357.387
  H     -345.853     840.717    -354.965
  H     -356.650     837.877    -357.838
  H     -351.451     839.849    -354.573
  H     -353.001     840.485    -358.033
  H     -353.738     842.186    -355.890
  H     -351.485     842.164    -354.967
  H     -350.530     842.555    -357.876
  H     -348.529     841.334    -357.135
  H     -356.263     836.153    -353.715
  H     -354.723     836.637    -353.104
  H     -348.732     842.846    -356.220
  P     -351.263     844.724    -354.522
  C     -352.753     846.039    -352.870
  O     -352.712     845.236    -354.042
  O     -350.498     846.081    -354.920
  O     -350.488     843.930    -353.535
  H     -349.653     846.136    -354.427
  H     -353.766     846.312    -352.660
  H     -352.170     846.923    -353.023
  H     -352.354     845.487    -352.045

 6  7  8  9  10  11  12  13  14  15  25  28  32  33  34  35 0
 6-311+G(2d,p)
 ****
 36  39  40 0
 6-311+G(2d,p)
 ****
 1  2  3  4  5  16  17  18  19  20  21  22  23  24 0
 3-21G
 ****
 26  27  29  30  31  37  38  41  42  43  44  45  46  47  48 0
 3-21G
 ****


