%nproc=1
%NoSave
%Mem=1900MB
#P OB98/GEN NMR

erre ene a

0 1
  C       -0.953    -293.821      63.680
  O       -1.169    -294.378      62.403
  H       -1.526    -292.892      63.758
  H        0.110    -293.590      63.805
  H       -1.277    -294.501      64.474
  P       -0.826    -295.924      62.168
  C        1.555    -295.289      61.397
  O        0.770    -296.092      62.269
  C        2.454    -296.136      60.493
  O        3.250    -297.044      61.288
  C        1.649    -297.012      59.531
  O        1.230    -296.376      58.336
  C        2.637    -298.138      59.236
  O        3.525    -297.773      58.166
  C        3.407    -298.268      60.554
  N        3.788    -303.267      61.547
  C        4.399    -302.533      60.551
  N        5.158    -303.224      59.675
  N        4.256    -301.239      60.420
  C        3.390    -300.694      61.310
  C        2.714    -301.326      62.331
  C        2.922    -302.749      62.503
  O        2.401    -303.451      63.366
  N        1.924    -300.446      63.035
  C        2.065    -299.302      62.391
  N        2.963    -299.397      61.352
  O       -1.097    -296.137      60.600
  O       -1.628    -296.889      62.988
  H        2.999    -297.364      57.456
  H       -1.322    -297.068      60.426
  H        3.956    -304.258      61.618
  H        1.561    -298.378      62.649
  H        4.483    -298.401      60.377
  H        2.125    -299.054      58.922
  H        5.205    -304.233      59.666
  H        0.780    -297.443      60.044
  H        5.402    -302.773      58.789
  H        3.149    -295.480      59.955
  H        2.167    -294.641      62.030
  H        0.912    -294.639      60.795
  P       -0.015    -296.959      57.512
  C        1.580    -298.049      55.764
  O        0.523    -298.224      56.682
  O       -0.251    -295.841      56.389
  O       -1.245    -297.207      58.319
  H       -0.956    -295.228      56.670
  H        1.810    -298.986      55.302
  H        2.443    -297.683      56.280
  H        1.288    -297.344      55.014

 6  7  8  9  10  11  12  13  14  15  26  29  33  34 0
 6-311+G(2d,p)
 ****
 36  38  39  40  41 0
 6-311+G(2d,p)
 ****
 1  2  3  4  5  16  17  18  19  20  21  22  23  24  25 0
 3-21G
 ****
 27  28  30  31  32  35  37  42  43  44  45  46  47 0
 3-21G
 ****
 48  49 0
 3-21G
 ****


