%nproc=1
%NoSave
%Mem=1900MB
#P OB98/GEN NMR

erre ene a

0 1
  C     -670.244    -960.345    1466.366
  O     -670.334    -961.425    1465.439
  P     -671.624    -962.375    1465.307
  C     -671.844    -962.191    1462.715
  O     -671.645    -963.061    1463.855
  C     -671.828    -962.976    1461.410
  O     -670.495    -963.203    1460.965
  C     -672.470    -964.371    1461.483
  O     -673.900    -964.244    1461.494
  C     -671.919    -965.013    1460.212
  O     -672.651    -964.625    1459.059
  C     -670.474    -964.414    1460.177
  N     -669.456    -965.361    1460.659
  C     -668.996    -966.306    1459.746
  O     -669.464    -966.335    1458.599
  N     -668.002    -967.171    1460.154
  C     -667.576    -967.189    1461.387
  N     -666.616    -968.056    1461.703
  C     -668.148    -966.267    1462.418
  C     -669.055    -965.403    1461.982
  O     -672.926    -961.698    1465.676
  O     -671.333    -963.623    1466.291
  H     -672.707    -963.644    1459.052
  H     -672.166    -963.944    1466.664
  H     -667.776    -966.319    1463.450
  H     -669.482    -964.673    1462.676
  H     -670.182    -964.109    1459.150
  H     -671.920    -966.105    1460.258
  H     -672.125    -964.878    1462.381
  H     -672.330    -962.340    1460.648
  H     -666.258    -968.670    1461.005
  H     -671.020    -961.437    1462.724
  H     -666.209    -968.145    1462.643
  H     -672.791    -961.660    1462.867
  P     -674.785    -965.426    1462.116
  C     -674.458    -965.096    1464.659
  O     -675.350    -964.922    1463.526
  O     -674.149    -966.771    1462.118
  O     -676.121    -965.429    1461.202
  H     -676.464    -966.331    1461.153
  H     -674.769    -964.411    1465.443
  H     -673.451    -964.929    1464.390
  H     -674.605    -966.125    1465.023
  H     -669.293    -959.865    1466.264
  H     -670.348    -960.721    1467.362
  H     -671.023    -959.639    1466.168

 3  4  5  6  7  8  9  10  11  12  13  23  27  28  29  30  32 0
 6-311+G(2d,p)
 ****
 34  35 0
 6-311+G(2d,p)
 ****
 1  2  14  15  16  17  18  19  20  21  22  24  25  26 0
 3-21G
 ****
 31  33  36  37  38  39  40  41  42  43  44  45  46 0
 3-21G
 ****


