%nproc=1
%NoSave
%Mem=1900MB
#P OB98/GEN NMR

erre ene a

0 1
  C      166.954    -165.300     -37.931
  O      166.585    -166.665     -37.716
  P      166.025    -167.454     -38.999
  C      168.055    -168.427     -40.281
  O      167.041    -168.658     -39.316
  C      169.366    -169.122     -39.897
  O      169.868    -168.624     -38.619
  C      169.243    -170.646     -39.765
  O      170.485    -171.207     -40.206
  C      169.112    -170.843     -38.265
  O      169.414    -172.184     -37.886
  C      170.096    -169.779     -37.778
  N      171.642    -170.842     -33.092
  C      171.944    -171.458     -34.288
  N      172.828    -172.478     -34.237
  N      171.426    -171.107     -35.435
  C      170.589    -170.046     -35.343
  C      170.220    -169.341     -34.217
  C      170.774    -169.762     -32.949
  O      170.545    -169.248     -31.861
  N      169.370    -168.304     -34.530
  C      169.178    -168.436     -35.832
  N      169.935    -169.437     -36.378
  O      166.268    -166.421     -40.195
  O      164.590    -167.844     -38.883
  H      169.180    -172.282     -36.937
  H      165.438    -165.963     -40.419
  H      172.055    -171.166     -32.231
  H      168.523    -167.820     -36.427
  H      171.143    -170.092     -37.899
  H      168.093    -170.612     -37.939
  H      173.304    -172.768     -33.391
  H      168.410    -171.081     -40.323
  H      173.101    -172.922     -35.104
  H      170.120    -168.880     -40.658
  H      168.239    -167.354     -40.381
  H      167.701    -168.767     -41.261
  P      170.431    -172.415     -41.258
  C      170.461    -171.559     -43.701
  O      171.218    -171.940     -42.570
  O      168.895    -172.418     -41.724
  O      170.827    -173.745     -40.702
  H      168.592    -173.340     -41.832
  H      171.047    -170.853     -44.298
  H      169.518    -171.081     -43.418
  H      170.246    -172.440     -44.311
  H      167.310    -164.878     -37.014
  H      166.101    -164.749     -38.270
  H      167.726    -165.251     -38.670

 3  4  5  6  7  8  9  10  11  12  23  26  30  31 0
 6-311+G(2d,p)
 ****
 33  35  36  37  38 0
 6-311+G(2d,p)
 ****
 1  2  13  14  15  16  17  18  19  20  21  22  24  25 0
 3-21G
 ****
 27  28  29  32  34  39  40  41  42  43  44  45  46  47  48  49 0
 3-21G
 ****


