%nproc=1
%NoSave
%Mem=1900MB
#P OB98/GEN NMR

erre ene a

0 1
  C      -96.004    1223.790    -507.655
  O      -95.457    1225.075    -507.854
  P      -94.897    1225.540    -509.280
  C      -97.218    1226.584    -509.641
  O      -96.201    1225.740    -510.188
  C      -97.410    1227.810    -510.549
  O      -97.654    1227.348    -511.893
  C      -98.613    1228.698    -510.204
  O      -98.367    1229.656    -509.184
  C      -98.827    1229.408    -511.537
  O      -97.855    1230.473    -511.680
  C      -98.533    1228.292    -512.548
  N     -102.854    1228.783    -515.242
  C     -101.822    1229.642    -515.022
  N     -100.717    1229.437    -514.282
  C     -100.706    1228.199    -513.772
  C     -101.679    1227.212    -513.916
  C     -102.796    1227.564    -514.701
  N     -103.835    1226.671    -514.944
  N     -101.322    1226.078    -513.236
  C     -100.147    1226.351    -512.697
  N      -99.742    1227.621    -512.987
  O      -93.850    1224.648    -509.848
  O      -94.378    1227.031    -509.040
  H      -98.044    1230.928    -512.530
  H      -93.786    1227.303    -509.768
  H     -101.905    1230.620    -515.505
  H      -99.593    1225.671    -512.069
  H      -98.007    1228.665    -513.442
  H      -99.806    1229.872    -511.629
  H      -99.505    1228.100    -509.977
  H      -96.488    1228.398    -510.551
  H      -96.891    1226.925    -508.655
  H     -104.518    1226.965    -515.631
  H     -103.705    1225.715    -514.690
  H      -98.147    1226.026    -509.534
  P      -99.478    1229.821    -508.030
  C      -97.643    1229.669    -506.169
  O      -98.826    1229.139    -506.738
  O     -100.838    1229.322    -508.398
  O      -99.427    1231.382    -507.705
  H      -98.603    1231.694    -507.291
  H      -97.457    1229.180    -505.210
  H      -97.734    1230.748    -506.004
  H      -96.786    1229.477    -506.826
  H      -96.315    1223.689    -506.636
  H      -95.265    1223.049    -507.877
  H      -96.847    1223.657    -508.300

 3  4  5  6  7  8  9  10  11  12  22  25  29  30  31  32 0
 6-311+G(2d,p)
 ****
 33  36  37 0
 6-311+G(2d,p)
 ****
 1  2  13  14  15  16  17  18  19  20  21  23  24  26 0
 3-21G
 ****
 27  28  34  35  38  39  40  41  42  43  44  45  46  47  48 0
 3-21G
 ****


