%nproc=1
%NoSave
%Mem=1900MB
#P OB98/GEN NMR

erre ene a

0 1
  C     -461.907     436.380    -259.227
  O     -462.098     436.705    -260.592
  H     -461.234     435.520    -259.162
  H     -462.861     436.121    -258.763
  H     -461.455     437.224    -258.699
  P     -463.144     437.883    -260.903
  C     -465.621     438.254    -260.174
  O     -464.478     437.418    -260.138
  C     -466.741     437.636    -259.336
  O     -467.238     436.438    -259.965
  C     -466.307     437.215    -257.937
  O     -466.222     438.301    -257.033
  C     -467.437     436.265    -257.576
  O     -468.611     437.027    -257.235
  C     -467.632     435.512    -258.914
  N     -466.849     434.279    -258.996
  C     -467.397     433.142    -258.390
  O     -468.478     433.202    -257.808
  N     -466.688     431.964    -258.420
  C     -465.532     431.917    -259.015
  N     -464.871     430.733    -259.006
  C     -464.928     433.089    -259.684
  C     -465.625     434.214    -259.635
  O     -463.525     437.652    -262.443
  O     -462.682     439.267    -260.588
  H     -468.919     437.452    -258.058
  H     -464.265     438.256    -262.699
  H     -463.960     433.005    -260.159
  H     -465.245     435.117    -260.104
  H     -468.689     435.263    -259.071
  H     -467.205     435.628    -256.725
  H     -465.370     436.647    -257.957
  H     -467.572     438.354    -259.297
  H     -465.279     429.966    -258.488
  H     -465.944     438.360    -261.214
  H     -463.896     430.648    -259.280
  H     -465.375     439.244    -259.774
  P     -465.056     438.260    -255.925
  C     -464.998     437.746    -253.378
  O     -465.672     437.561    -254.620
  O     -464.920     439.796    -255.491
  O     -463.756     437.696    -256.400
  H     -463.984     440.038    -255.341
  H     -465.523     437.224    -252.606
  H     -464.963     438.789    -253.143
  H     -464.001     437.364    -253.453

 6  7  8  9  10  11  12  13  14  15  16  26  30  31  32  33  35 0
 6-311+G(2d,p)
 ****
 37  38 0
 6-311+G(2d,p)
 ****
 1  2  3  4  5  17  18  19  20  21  22  23  24  25 0
 3-21G
 ****
 27  28  29  34  36  39  40  41  42  43  44  45  46 0
 3-21G
 ****


