%nproc=1
%NoSave
%Mem=1900MB
#P OB98/GEN NMR

erre ene a

0 1
  C      -97.832      57.524      22.513
  O      -96.890      56.505      22.810
  P      -95.373      56.604      22.295
  C      -94.284      56.550      19.951
  O      -95.446      56.285      20.725
  C      -94.010      55.380      19.010
  O      -93.614      54.225      19.776
  C      -95.213      54.938      18.185
  O      -95.453      55.833      17.110
  C      -94.787      53.530      17.785
  O      -93.869      53.581      16.681
  C      -94.052      53.049      19.054
  N      -94.879      52.192      19.898
  C      -95.081      50.883      19.448
  O      -94.575      50.486      18.400
  N      -95.833      50.031      20.220
  C      -96.357      50.453      21.331
  N      -97.034      49.547      22.088
  C      -96.215      51.840      21.812
  C      -95.468      52.643      21.058
  O      -94.398      55.770      23.055
  O      -95.042      58.166      22.316
  H      -93.684      52.655      16.428
  H      -94.687      58.483      23.183
  H      -96.681      52.148      22.738
  H      -95.298      53.671      21.353
  H      -93.142      52.503      18.781
  H      -95.624      52.885      17.496
  H      -96.110      54.886      18.814
  H      -93.176      55.657      18.350
  H      -96.957      48.575      21.809
  H      -93.432      56.671      20.630
  H      -97.216      49.712      23.071
  H      -94.425      57.481      19.393
  P      -96.955      55.947      16.561
  C      -98.620      54.200      15.609
  O      -97.266      54.546      15.839
  O      -96.829      56.997      15.361
  O      -97.955      56.375      17.584
  H      -97.137      57.878      15.645
  H      -98.648      53.358      14.914
  H      -99.166      55.039      15.171
  H      -99.091      53.897      16.548
  H      -98.778      57.271      22.943
  H      -97.936      57.616      21.452
  H      -97.492      58.453      22.920

 3  4  5  6  7  8  9  10  11  12  13  23  27  28  29  30  32 0
 6-311+G(2d,p)
 ****
 34  35 0
 6-311+G(2d,p)
 ****
 1  2  14  15  16  17  18  19  20  21  22  24  25  26 0
 3-21G
 ****
 31  33  36  37  38  39  40  41  42  43  44  45  46 0
 3-21G
 ****


