%nproc=1
%NoSave
%Mem=1900MB
#P OB98/GEN NMR

erre ene a

0 1
  C       94.791    -710.394     279.067
  O       94.901    -709.264     279.906
  P       94.575    -709.388     281.474
  C       95.172    -706.918     281.888
  O       94.177    -707.928     282.015
  C       94.575    -705.542     282.158
  O       93.584    -705.210     281.155
  C       93.842    -705.434     283.485
  O       94.732    -705.394     284.587
  C       93.035    -704.156     283.272
  O       93.844    -702.999     283.492
  C       92.664    -704.279     281.782
  N       91.277    -704.691     281.583
  C       90.309    -703.701     281.743
  O       90.633    -702.563     282.114
  N       88.993    -704.006     281.490
  C       88.670    -705.240     281.223
  N       87.367    -705.482     280.925
  C       89.644    -706.348     281.205
  C       90.921    -706.004     281.366
  O       95.605    -710.098     282.286
  O       93.177    -710.171     281.514
  H       93.253    -710.919     282.141
  H       94.489    -702.962     282.755
  H       89.310    -707.364     281.048
  H       91.707    -706.749     281.347
  H       92.815    -703.319     281.270
  H       92.177    -704.086     283.949
  H       93.154    -706.282     283.603
  H       95.380    -704.801     282.106
  H       86.728    -704.693     280.927
  H       95.577    -706.951     280.877
  H       87.071    -706.301     280.395
  H       95.988    -707.129     282.598
  P       94.269    -706.161     285.917
  C       96.374    -705.482     287.272
  O       94.967    -705.423     287.160
  O       95.052    -707.562     285.827
  O       92.797    -706.365     286.043
  H       94.486    -708.277     286.186
  H       96.708    -704.671     287.929
  H       96.858    -705.371     286.298
  H       96.666    -706.439     287.716
  H       95.046    -710.120     278.065
  H       93.786    -710.760     279.092
  H       95.458    -711.158     279.408

 3  4  5  6  7  8  9  10  11  12  13  24  27  28  29  30  32 0
 6-311+G(2d,p)
 ****
 34  35 0
 6-311+G(2d,p)
 ****
 1  2  14  15  16  17  18  19  20  21  22  23  25  26 0
 3-21G
 ****
 31  33  36  37  38  39  40  41  42  43  44  45  46 0
 3-21G
 ****


