%nproc=1
%NoSave
%Mem=1900MB
#P OB98/GEN NMR

erre ene a

0 1
  C     -350.464     270.223      24.486
  O     -351.497     270.319      23.519
  P     -351.152     270.573      21.975
  C     -352.448     268.666      20.837
  O     -351.172     269.135      21.261
  C     -352.296     267.483      19.884
  O     -351.466     267.885      18.769
  C     -351.642     266.266      20.525
  O     -352.237     265.081      19.989
  C     -350.196     266.325      20.059
  O     -349.596     265.021      20.051
  C     -350.353     266.976      18.681
  N     -345.756     266.735      16.409
  C     -346.705     265.796      16.617
  N     -347.892     265.924      17.249
  C     -348.081     267.192      17.643
  C     -347.205     268.259      17.498
  C     -345.988     267.991      16.849
  N     -345.026     268.955      16.628
  N     -347.736     269.406      18.057
  C     -348.914     269.041      18.513
  N     -349.174     267.717      18.276
  O     -349.918     271.369      21.728
  O     -352.452     271.289      21.385
  H     -348.681     265.129      19.717
  H     -352.197     271.976      20.740
  H     -346.481     264.807      16.222
  H     -349.609     269.688      19.025
  H     -350.580     266.233      17.907
  H     -349.617     266.958      20.740
  H     -351.724     266.264      21.618
  H     -353.284     267.227      19.483
  H     -352.960     269.484      20.318
  H     -344.244     268.701      16.050
  H     -345.271     269.921      16.798
  H     -353.042     268.385      21.713
  P     -352.352     263.832      20.998
  C     -354.937     263.784      21.300
  O     -353.680     264.115      21.846
  O     -351.088     263.611      21.762
  O     -352.738     262.651      19.989
  H     -353.178     262.998      19.181
  H     -355.716     264.086      22.005
  H     -355.008     262.704      21.144
  H     -355.093     264.308      20.352
  H     -350.894     270.053      25.451
  H     -349.903     271.134      24.500
  H     -349.816     269.409      24.236

 3  4  5  6  7  8  9  10  11  12  22  25  29  30  31  32 0
 6-311+G(2d,p)
 ****
 33  36  37 0
 6-311+G(2d,p)
 ****
 1  2  13  14  15  16  17  18  19  20  21  23  24  26 0
 3-21G
 ****
 27  28  34  35  38  39  40  41  42  43  44  45  46  47  48 0
 3-21G
 ****


