%nproc=1
%NoSave
%Mem=1900MB
#P OB98/GEN NMR

erre ene a

0 1
  C      369.154    -111.335     136.828
  O      369.391    -110.043     136.305
  P      370.873    -109.744     135.747
  C      371.930    -107.824     134.328
  O      370.752    -108.434     134.830
  C      371.553    -106.607     133.475
  O      370.932    -107.033     132.242
  C      370.565    -105.657     134.143
  O      371.242    -104.786     135.039
  C      369.961    -104.948     132.937
  O      370.825    -103.894     132.473
  C      369.881    -106.089     131.906
  N      364.986    -105.616     130.720
  C      365.980    -104.656     130.781
  N      365.632    -103.399     130.433
  N      367.213    -104.908     131.150
  C      367.415    -106.206     131.480
  C      366.506    -107.242     131.479
  C      365.167    -106.960     131.020
  O      364.272    -107.788     130.857
  N      367.077    -108.414     131.904
  C      368.334    -108.089     132.137
  N      368.598    -106.771     131.876
  O      371.113    -110.933     134.706
  O      371.937    -109.668     136.794
  H      371.726    -104.249     132.354
  H      371.641    -111.647     135.108
  H      364.061    -105.364     130.413
  H      369.096    -108.782     132.470
  H      370.075    -105.735     130.886
  H      369.002    -104.485     133.168
  H      364.697    -103.127     130.160
  H      369.787    -106.225     134.665
  H      366.347    -102.683     130.472
  H      372.477    -106.080     133.218
  H      372.472    -108.542     133.708
  H      372.569    -107.523     135.169
  P      370.389    -103.596     135.692
  C      370.524    -102.208     137.885
  O      371.012    -103.309     137.144
  O      368.976    -104.278     136.008
  O      370.233    -102.395     134.824
  H      368.260    -103.632     135.865
  H      370.613    -102.441     138.950
  H      369.478    -101.991     137.656
  H      371.133    -101.328     137.662
  H      368.140    -111.404     137.162
  H      369.814    -111.513     137.651
  H      369.329    -112.066     136.066

 3  4  5  6  7  8  9  10  11  12  23  26  30  31 0
 6-311+G(2d,p)
 ****
 33  35  36  37  38 0
 6-311+G(2d,p)
 ****
 1  2  13  14  15  16  17  18  19  20  21  22  24  25 0
 3-21G
 ****
 27  28  29  32  34  39  40  41  42  43  44  45  46  47  48  49 0
 3-21G
 ****


