%nproc=1
%NoSave
%Mem=1900MB
#P OB98/GEN NMR

erre ene a

0 1
  C      -38.552     -11.760      13.377
  O      -38.569     -12.420      14.626
  H      -38.503     -10.682      13.550
  H      -39.467     -11.985      12.825
  H      -37.679     -12.064      12.792
  P      -38.405     -14.014      14.618
  C      -37.550     -15.753      16.351
  O      -37.579     -14.394      15.943
  C      -36.744     -15.894      17.643
  O      -35.388     -15.427      17.395
  C      -37.303     -15.080      18.817
  O      -37.098     -15.826      20.021
  C      -36.413     -13.851      18.836
  O      -36.361     -13.196      20.096
  C      -35.071     -14.460      18.416
  N      -34.131     -13.458      17.918
  C      -32.937     -13.301      18.614
  O      -32.580     -13.998      19.562
  N      -32.129     -12.282      18.177
  C      -32.402     -11.417      17.160
  O      -31.646     -10.512      16.829
  C      -33.682     -11.628      16.469
  C      -34.475     -12.621      16.876
  O      -37.351     -14.260      13.441
  O      -39.666     -14.789      14.430
  H      -37.811     -14.377      12.590
  H      -37.257     -12.851      20.284
  H      -31.260     -12.154      18.671
  H      -33.937     -10.954      15.663
  H      -35.436     -12.791      16.402
  H      -34.620     -15.004      19.254
  H      -36.762     -13.126      18.093
  H      -38.361     -14.819      18.719
  H      -36.676     -16.957      17.901
  H      -37.077     -16.357      15.570
  H      -38.575     -16.107      16.500
  P      -38.095     -17.051      20.307
  C      -39.116     -18.074      22.492
  O      -38.280     -17.091      21.899
  O      -37.151     -18.299      19.984
  O      -39.351     -16.979      19.506
  H      -36.224     -18.149      20.234
  H      -39.118     -17.947      23.554
  H      -38.747     -19.049      22.250
  H      -40.113     -17.967      22.118

 6  7  8  9  10  11  12  13  14  15  16  27  31  32  33  34  35 0
 6-311+G(2d,p)
 ****
 36  37 0
 6-311+G(2d,p)
 ****
 1  2  3  4  5  17  18  19  20  21  22  23  24  25 0
 3-21G
 ****
 26  28  29  30  38  39  40  41  42  43  44  45 0
 3-21G
 ****


