%nproc=1
%NoSave
%Mem=1900MB
#P OB98/GEN NMR

erre ene a

0 1
  C      287.144    -248.661      71.109
  O      286.381    -248.596      69.896
  P      287.047    -248.208      68.488
  C      285.846    -246.166      67.473
  O      285.914    -247.588      67.532
  C      284.409    -245.675      67.270
  O      283.598    -245.987      68.420
  C      284.278    -244.171      67.054
  O      284.616    -243.827      65.723
  C      282.814    -243.945      67.431
  O      281.954    -244.288      66.331
  C      282.627    -244.932      68.587
  N      280.104    -242.765      72.472
  C      279.678    -243.317      71.316
  N      280.416    -243.871      70.327
  C      281.720    -243.842      70.638
  C      282.306    -243.308      71.776
  C      281.434    -242.743      72.726
  N      281.870    -242.169      73.900
  N      283.676    -243.436      71.731
  C      283.918    -244.055      70.590
  N      282.770    -244.320      69.895
  O      287.839    -249.311      67.862
  O      287.985    -246.954      68.813
  H      281.082    -244.517      66.703
  H      288.731    -246.925      68.184
  H      278.602    -243.314      71.163
  H      284.899    -244.331      70.229
  H      281.640    -245.408      68.555
  H      282.605    -242.904      67.699
  H      284.922    -243.633      67.759
  H      283.986    -246.224      66.419
  H      286.472    -245.826      66.636
  H      281.186    -241.758      74.513
  H      282.864    -242.108      74.074
  H      286.254    -245.759      68.407
  P      285.833    -242.827      65.435
  C      284.518    -241.586      63.613
  O      285.685    -242.327      63.919
  O      287.185    -243.331      65.815
  O      285.450    -241.512      66.274
  H      286.268    -241.059      66.552
  H      283.680    -242.270      63.468
  H      284.689    -241.030      62.685
  H      284.283    -240.878      64.412
  H      286.502    -248.936      71.920
  H      287.580    -247.704      71.308
  H      287.919    -249.391      71.004

 3  4  5  6  7  8  9  10  11  12  22  25  29  30  31  32 0
 6-311+G(2d,p)
 ****
 33  36  37 0
 6-311+G(2d,p)
 ****
 1  2  13  14  15  16  17  18  19  20  21  23  24  26 0
 3-21G
 ****
 27  28  34  35  38  39  40  41  42  43  44  45  46  47  48 0
 3-21G
 ****


