%nproc=1
%NoSave
%Mem=1900MB
#P OB98/GEN NMR

erre ene a

0 1
  C     -421.180    -169.684     139.481
  O     -421.142    -168.508     138.695
  P     -422.217    -167.346     138.898
  C     -423.178    -167.913     136.520
  O     -423.416    -167.583     137.870
  C     -424.525    -168.164     135.826
  O     -425.142    -169.353     136.356
  C     -425.488    -166.999     136.034
  O     -425.423    -166.095     134.942
  C     -426.830    -167.697     136.157
  O     -427.355    -168.014     134.857
  C     -426.436    -168.993     136.910
  N     -426.306    -168.934     138.376
  C     -427.400    -168.561     139.152
  O     -428.507    -168.301     138.689
  N     -427.172    -168.472     140.504
  C     -425.994    -168.758     141.131
  O     -425.732    -168.448     142.290
  C     -424.972    -169.401     140.302
  C     -425.161    -169.435     138.982
  O     -421.475    -166.056     138.309
  O     -422.676    -167.134     140.304
  H     -428.206    -168.468     134.994
  H     -421.087    -165.525     139.028
  H     -427.922    -168.068     141.054
  H     -424.078    -169.771     140.782
  H     -424.401    -169.873     138.337
  H     -427.136    -169.805     136.682
  H     -427.567    -167.053     136.634
  H     -425.269    -166.489     136.981
  H     -424.346    -168.326     134.755
  H     -422.543    -168.803     136.456
  H     -422.644    -167.097     136.023
  P     -426.060    -164.633     135.084
  C     -427.631    -164.707     133.061
  O     -427.538    -164.758     134.470
  O     -425.232    -163.513     134.549
  O     -426.301    -164.493     136.664
  H     -425.564    -163.991     137.068
  H     -428.647    -164.975     132.765
  H     -426.929    -165.407     132.601
  H     -427.423    -163.689     132.712
  H     -420.380    -170.333     139.191
  H     -422.115    -170.183     139.332
  H     -421.074    -169.426     140.514

 3  4  5  6  7  8  9  10  11  12  13  23  28  29  30  31  32 0
 6-311+G(2d,p)
 ****
 33  34 0
 6-311+G(2d,p)
 ****
 1  2  14  15  16  17  18  19  20  21  22  24  25  26  27 0
 3-21G
 ****
 35  36  37  38  39  40  41  42  43  44  45 0
 3-21G
 ****


