%nproc=1
%NoSave
%Mem=1900MB
#P OB98/GEN NMR

erre ene a

0 1
  C      483.568     518.340    -470.200
  O      483.267     518.487    -471.575
  H      483.694     519.336    -469.766
  H      484.499     517.783    -470.084
  H      482.760     517.832    -469.674
  P      482.712     517.224    -472.386
  C      485.032     516.159    -472.795
  O      483.879     516.754    -473.380
  C      486.287     516.458    -473.621
  O      486.165     515.812    -474.923
  C      486.430     517.965    -473.900
  O      487.795     518.350    -474.075
  C      485.698     518.149    -475.211
  O      486.101     519.314    -475.933
  C      486.017     516.835    -475.923
  N      484.591     516.801    -480.823
  C      485.614     517.501    -480.211
  N      486.368     518.286    -481.029
  N      485.876     517.442    -478.939
  C      485.002     516.671    -478.236
  C      483.930     515.941    -478.718
  C      483.675     515.988    -480.152
  O      482.771     515.420    -480.730
  N      483.277     515.297    -477.705
  C      483.938     515.622    -476.620
  N      485.006     516.432    -476.895
  O      481.641     517.865    -473.386
  O      482.114     516.136    -471.545
  H      485.513     519.402    -476.698
  H      481.003     517.180    -473.675
  H      484.459     516.855    -481.818
  H      483.695     515.281    -475.624
  H      486.972     516.909    -476.460
  H      484.625     518.263    -474.997
  H      486.069     518.506    -481.972
  H      485.991     518.586    -473.112
  H      486.909     519.023    -480.568
  H      487.171     516.042    -473.142
  H      484.851     515.077    -472.744
  H      485.160     516.506    -471.763
  P      488.729     518.479    -472.774
  C      488.970     521.102    -472.511
  O      489.549     519.848    -472.824
  O      489.848     517.360    -473.010
  O      488.010     518.286    -471.475
  H      489.786     516.668    -472.327
  H      489.707     521.871    -472.614
  H      488.609     521.087    -471.504
  H      488.157     521.296    -473.179

 6  7  8  9  10  11  12  13  14  15  26  29  33  34 0
 6-311+G(2d,p)
 ****
 36  38  39  40  41 0
 6-311+G(2d,p)
 ****
 1  2  3  4  5  16  17  18  19  20  21  22  23  24  25 0
 3-21G
 ****
 27  28  30  31  32  35  37  42  43  44  45  46  47 0
 3-21G
 ****
 48  49 0
 3-21G
 ****


