%nproc=1
%NoSave
%Mem=1900MB
#P OB98/GEN NMR

erre ene a

0 1
  C      176.776    -317.246     332.894
  O      176.041    -316.358     333.715
  H      177.835    -317.175     333.154
  H      176.651    -316.975     331.842
  H      176.438    -318.272     333.055
  P      174.448    -316.342     333.510
  C      174.047    -316.073     336.069
  O      173.850    -315.544     334.769
  C      172.925    -315.602     337.009
  O      173.143    -314.197     337.332
  C      171.516    -315.703     336.389
  O      170.564    -315.934     337.442
  C      171.316    -314.302     335.836
  O      169.959    -314.066     335.559
  C      171.941    -313.487     336.969
  N      169.929    -309.119     335.263
  C      169.364    -310.287     335.634
  N      169.968    -311.405     336.084
  C      171.301    -311.221     336.166
  C      172.020    -310.092     335.830
  C      171.281    -308.999     335.345
  N      171.854    -307.808     334.953
  N      173.374    -310.297     336.028
  C      173.462    -311.533     336.490
  N      172.236    -312.126     336.588
  O      174.032    -317.861     333.786
  O      173.972    -315.861     332.178
  H      169.430    -314.027     336.383
  H      174.013    -318.362     332.948
  H      168.276    -310.335     335.548
  H      174.386    -312.043     336.753
  H      171.288    -313.452     337.853
  H      171.870    -314.165     334.901
  H      171.430    -316.495     335.635
  H      172.987    -316.156     337.957
  H      175.015    -315.724     336.449
  H      174.046    -317.168     336.025
  H      171.251    -307.089     334.595
  H      172.858    -307.720     334.979
  P      169.582    -317.210     337.344
  C      169.718    -318.085     339.801
  O      168.915    -317.514     338.781
  O      170.625    -318.419     337.192
  O      168.627    -317.199     336.199
  H      170.328    -319.016     336.477
  H      169.129    -318.222     340.684
  H      170.538    -317.432     340.017
  H      170.093    -319.032     339.472

 6  7  8  9  10  11  12  13  14  15  25  28  32  33  34  35 0
 6-311+G(2d,p)
 ****
 36  37  40 0
 6-311+G(2d,p)
 ****
 1  2  3  4  5  16  17  18  19  20  21  22  23  24 0
 3-21G
 ****
 26  27  29  30  31  38  39 41  42  43  44  45  46  47  48 0
 3-21G
 ****


