%nproc=1
%NoSave
%Mem=1900MB
#P OB98/GEN NMR

erre ene a

0 1
  C      613.832    -182.256     361.666
  O      612.868    -181.564     362.437
  H      614.789    -182.203     362.178
  H      613.940    -181.795     360.675
  H      613.548    -183.311     361.557
  P      611.375    -181.426     361.857
  C      610.005    -182.041     363.971
  O      610.453    -181.008     363.099
  C      608.976    -181.504     364.962
  O      609.616    -180.637     365.932
  C      607.872    -180.658     364.324
  O      606.939    -181.488     363.656
  C      607.335    -179.925     365.550
  O      606.479    -180.772     366.319
  C      608.651    -179.622     366.319
  N      609.176    -178.295     366.066
  C      608.300    -177.217     366.308
  O      607.144    -177.450     366.680
  N      608.747    -175.934     366.082
  C      609.968    -175.731     365.698
  N      610.349    -174.436     365.507
  C      610.936    -176.824     365.479
  C      610.489    -178.055     365.660
  O      610.863    -182.589     361.068
  O      611.430    -180.094     360.974
  H      605.779    -181.090     365.701
  H      611.616    -180.309     360.040
  H      611.970    -176.601     365.159
  H      611.135    -178.920     365.516
  H      608.491    -179.724     367.395
  H      606.755    -179.042     365.274
  H      608.298    -179.927     363.631
  H      608.559    -182.356     365.508
  H      609.657    -173.727     365.685
  H      610.886    -182.415     364.506
  H      611.306    -174.140     365.368
  H      609.575    -182.868     363.395
  P      606.081    -180.956     362.417
  C      606.119    -183.249     361.249
  O      605.302    -182.252     361.837
  O      606.832    -180.174     361.403
  O      604.875    -180.134     363.112
  H      605.217    -179.245     363.414
  H      605.505    -184.054     360.902
  H      606.812    -183.617     361.976
  H      606.657    -182.829     360.425

 6  7  8  9  10  11  12  13  14  15  16  26  30  31  32  33  35 0
 6-311+G(2d,p)
 ****
 37  38 0
 6-311+G(2d,p)
 ****
 1  2  3  4  5  17  18  19  20  21  22  23  24  25 0
 3-21G
 ****
 27  28  29  34  36  39  40  41  42  43  44  45  46 0
 3-21G
 ****


