%nproc=1
%NoSave
%Mem=1900MB
#P OB98/GEN NMR

erre ene a

0 1
  C      -80.252     -85.803     190.288
  O      -81.506     -86.086     190.916
  P      -82.266     -84.825     191.566
  C      -81.560     -85.359     194.005
  O      -81.495     -84.436     192.929
  C      -81.556     -84.647     195.359
  O      -81.824     -85.580     196.447
  C      -80.230     -83.943     195.684
  O      -80.550     -82.759     196.426
  C      -79.547     -84.935     196.618
  O      -78.509     -84.321     197.374
  C      -80.759     -85.415     197.420
  N      -79.111     -87.373     201.770
  C      -79.118     -86.061     201.332
  N      -78.667     -85.128     202.203
  N      -79.534     -85.699     200.150
  C      -79.996     -86.739     199.398
  C      -80.056     -88.071     199.733
  C      -79.557     -88.465     201.039
  O      -79.530     -89.610     201.483
  N      -80.619     -88.818     198.716
  C      -80.826     -87.931     197.758
  N      -80.526     -86.657     198.143
  O      -83.648     -85.452     192.072
  O      -82.482     -83.696     190.610
  H      -78.921     -83.606     197.906
  H      -84.364     -85.243     191.437
  H      -78.764     -87.599     202.695
  H      -81.229     -88.157     196.782
  H      -81.081     -84.681     198.164
  H      -79.111     -85.761     196.040
  H      -78.382     -85.333     203.151
  H      -79.614     -83.699     194.811
  H      -78.699     -84.162     201.919
  H      -82.370     -83.906     195.361
  H      -80.703     -86.042     193.967
  H      -82.452     -85.990     193.886
  P      -80.565     -81.367     195.630
  C      -78.071     -80.765     196.049
  O      -79.074     -81.102     195.106
  O      -80.737     -80.279     196.806
  O      -81.649     -81.234     194.615
  H      -81.336     -79.568     196.501
  H      -77.097     -81.074     195.663
  H      -78.242     -81.264     197.014
  H      -78.071     -79.679     196.208
  H      -79.839     -86.708     189.893
  H      -79.578     -85.387     191.008
  H      -80.401     -85.102     189.493

 3  4  5  6  7  8  9  10  11  12  23  26  30  31 0
 6-311+G(2d,p)
 ****
 33  35  36  37  38 0
 6-311+G(2d,p)
 ****
 1  2  13  14  15  16  17  18  19  20  21  22  24  25 0
 3-21G
 ****
 27  28  29  32  34  39  40  41  42  43  44  45  46  47  48  49 0
 3-21G
 ****


