%nproc=1
%NoSave
%Mem=1900MB
#P OB98/GEN NMR

erre ene a

0 1
  C     -890.800    -896.370    -892.320
  O     -891.830    -897.400    -892.220
  P     -893.360    -896.930    -892.190
  C     -894.390    -897.720    -894.390
  O     -893.920    -896.610    -893.660
  C     -895.020    -897.260    -895.790
  O     -896.230    -896.530    -895.520
  C     -894.080    -896.350    -896.570
  O     -894.280    -896.610    -897.980
  C     -894.590    -894.910    -896.240
  O     -894.180    -893.960    -897.190
  C     -896.140    -895.290    -896.200
  N     -899.060    -891.090    -896.730
  C     -898.420    -891.880    -897.630
  N     -897.670    -893.000    -897.410
  C     -897.540    -893.200    -896.050
  C     -898.100    -892.470    -895.020
  C     -898.870    -891.350    -895.370
  N     -899.470    -890.520    -894.500
  N     -897.710    -892.980    -893.790
  C     -897.000    -894.050    -894.120
  N     -896.890    -894.250    -895.460
  O     -893.290    -895.410    -891.490
  O     -894.240    -897.800    -891.350
  H     -894.620    -894.130    -898.060
  H     -893.540    -895.470    -890.560
  H     -898.620    -891.650    -898.690
  H     -896.460    -894.660    -893.330
  H     -896.560    -895.300    -897.190
  H     -894.240    -894.590    -895.250
  H     -893.000    -896.430    -896.350
  H     -895.200    -898.210    -896.370
  H     -895.140    -898.240    -893.790
  H     -900.000    -889.710    -894.800
  H     -899.370    -890.670    -893.490
  H     -893.580    -898.440    -894.550
  P     -893.650    -897.960    -898.580
  C     -896.080    -899.030    -898.600
  O     -894.720    -899.170    -898.190
  O     -892.430    -898.260    -897.570
  O     -893.220    -897.880    -900.000
  H     -891.710    -898.760    -898.100
  H     -896.420    -900.000    -898.910
  H     -896.170    -898.320    -899.400
  H     -896.720    -898.710    -897.730
  H     -889.834    -896.831    -892.329
  H     -890.872    -895.710    -891.481
  H     -890.938    -895.814    -893.224

 3  4  5  6  7  8  9  10  11  12  22  25  29  30  31  32 0
 6-311+G(2d,p)
 ****
 33  36  37 0
 6-311+G(2d,p)
 ****
 1  2  13  14  15  16  17  18  19  20  21  23  24  26 0
 3-21G
 ****
 27  28  34  35  38  39  40  41  42  43  44  45  46  47  48 0
 3-21G
 ****


