%nproc=1
%NoSave
%Mem=1900MB
#P OB98/GEN NMR

erre ene a

0 1
  C      183.752     -61.137    -178.328
  O      183.563     -59.743    -178.586
  P      184.679     -58.996    -179.461
  C      185.891     -57.704    -177.553
  O      185.959     -58.731    -178.536
  C      187.184     -57.673    -176.734
  O      188.287     -57.190    -177.521
  C      187.110     -56.740    -175.536
  O      186.389     -57.343    -174.480
  C      188.583     -56.510    -175.223
  O      189.090     -57.485    -174.297
  C      189.262     -56.660    -176.603
  N      189.825     -55.413    -177.093
  C      191.127     -55.123    -176.673
  O      191.721     -55.895    -175.917
  N      191.711     -53.959    -177.103
  C      191.043     -53.144    -177.859
  N      191.672     -52.003    -178.248
  C      189.657     -53.398    -178.301
  C      189.113     -54.540    -177.883
  O      184.065     -57.532    -179.668
  O      184.969     -59.660    -180.767
  H      190.017     -57.224    -174.122
  H      184.331     -57.173    -180.533
  H      189.139     -52.686    -178.924
  H      188.098     -54.810    -178.158
  H      190.073     -57.398    -176.553
  H      188.746     -55.529    -174.766
  H      186.641     -55.793    -175.828
  H      187.409     -58.695    -176.400
  H      192.620     -51.859    -177.924
  H      185.036     -57.870    -176.895
  H      191.245     -51.296    -178.830
  H      185.720     -56.745    -178.055
  P      184.891     -56.842    -174.218
  C      185.705     -55.553    -172.152
  O      185.046     -55.470    -173.402
  O      184.395     -57.853    -173.074
  O      183.963     -56.821    -175.384
  H      183.450     -57.710    -172.891
  H      185.926     -54.541    -171.806
  H      186.643     -56.106    -172.246
  H      185.054     -56.040    -171.420
  H      182.939     -61.504    -177.738
  H      184.670     -61.280    -177.798
  H      183.788     -61.670    -179.255

 3  4  5  6  7  8  9  10  11  12  13  21  23  27  28  29  30  32 0
 6-311+G(2d,p)
 ****
 34  35 0
 6-311+G(2d,p)
 ****
 1  2  14  15  16  17  18  19  20  22  24  25  26 0
 3-21G
 ****
 31  33  36  37  38  39  40  41  42  43  44  45  46 0
 3-21G
 ****


