%nproc=1
%NoSave
%Mem=1900MB
#P OB98/GEN NMR

erre ene a

0 1
  C       63.144    -220.506     -99.941
  O       63.620    -220.635    -101.282
  P       65.194    -220.614    -101.596
  C       65.735    -223.003    -100.853
  O       65.942    -221.619    -100.589
  C       66.145    -223.913     -99.689
  O       67.571    -223.834     -99.445
  C       65.444    -223.613     -98.361
  O       65.298    -224.876     -97.703
  C       66.463    -222.746     -97.646
  O       66.244    -222.684     -96.244
  C       67.773    -223.415     -98.084
  N       68.922    -222.524     -97.953
  C       69.472    -222.383     -96.679
  O       68.956    -222.949     -95.714
  N       70.563    -221.566     -96.516
  C       71.002    -220.875     -97.521
  N       72.071    -220.064     -97.293
  C       70.397    -220.926     -98.866
  C       69.379    -221.772     -99.009
  O       65.798    -219.251    -101.674
  O       65.311    -221.361    -103.011
  H       66.977    -222.172     -95.840
  H       66.077    -221.005    -103.500
  H       70.781    -220.312     -99.667
  H       68.870    -221.886     -99.960
  H       67.965    -224.315     -97.485
  H       66.413    -221.722     -98.036
  H       64.478    -223.120     -98.480
  H       65.935    -224.945     -99.994
  H       72.440    -220.038     -96.350
  H       66.313    -223.276    -101.742
  H       72.418    -219.402     -97.971
  H       64.679    -223.164    -101.095
  P       63.958    -225.742     -97.816
  C       64.450    -228.129     -98.593
  O       64.187    -226.798     -98.996
  O       62.701    -224.942     -97.931
  O       63.944    -226.656     -96.498
  H       63.045    -226.999     -96.353
  H       64.375    -228.785     -99.462
  H       63.728    -228.456     -97.837
  H       65.460    -228.196     -98.181
  H       62.075    -220.543     -99.937
  H       63.470    -219.571     -99.535
  H       63.531    -221.307     -99.347

 3  4  5  6  7  8  9  10  11  12  13  23  27  28  29  30  32 0
 6-311+G(2d,p)
 ****
 34  35 0
 6-311+G(2d,p)
 ****
 1  2  14  15  16  17  18  19  20  21  22  24  25  26 0
 3-21G
 ****
 31  33  36  37  38  39  40  41  42  43  44  45  46 0
 3-21G
 ****


