%nproc=1
%NoSave
%Mem=1900MB
#P OB98/GEN NMR

erre ene a

0 1
  C     -144.429     586.097     541.521
  O     -145.159     586.932     540.607
  P     -144.362     587.721     539.460
  C     -143.946     590.058     540.543
  O     -143.390     588.824     540.104
  C     -143.345     590.493     541.890
  O     -141.942     590.877     541.713
  C     -144.049     591.685     542.552
  O     -143.955     591.507     543.969
  C     -143.190     592.861     542.114
  O     -143.350     594.010     542.930
  C     -141.795     592.227     542.201
  N     -140.757     592.943     541.458
  C     -140.654     594.313     541.652
  O     -141.408     594.984     542.357
  N     -139.632     594.932     540.964
  C     -138.764     594.333     540.098
  O     -137.897     594.944     539.486
  C     -138.946     592.889     539.917
  C     -139.915     592.273     540.594
  O     -145.516     588.624     538.809
  O     -143.726     586.862     538.414
  H     -142.880     594.744     542.500
  H     -145.464     588.575     537.836
  H     -139.528     595.922     541.105
  H     -138.277     592.369     539.235
  H     -140.060     591.198     540.489
  H     -141.493     592.144     543.255
  H     -143.444     593.135     541.088
  H     -145.099     591.788     542.247
  H     -143.348     589.623     542.560
  H     -145.028     589.943     540.659
  H     -143.766     590.828     539.784
  P     -145.302     591.196     544.795
  C     -145.635     593.578     545.838
  O     -146.092     592.580     544.944
  O     -144.693     590.953     546.259
  O     -146.088     590.032     544.284
  H     -144.030     591.628     546.508
  H     -144.543     593.662     545.800
  H     -145.946     593.317     546.853
  H     -146.070     594.532     545.555
  H     -145.109     585.649     542.215
  H     -143.715     586.690     542.053
  H     -143.920     585.330     540.975

 3  4  5  6  7  8  9  10  11  12  13  23  28  29  30  31  32 0
 6-311+G(2d,p)
 ****
 33  34 0
 6-311+G(2d,p)
 ****
 1  2  14  15  16  17  18  19  20  21  22  24  25  26 0
 3-21G
 ****
 27  35  36  37  38  39  40  41  42  43  44  45 0
 3-21G
 ****


