%nproc=1
%NoSave
%Mem=1900MB
#P OB98/GEN NMR

erre ene a

0 1
  C      374.578      -2.993     113.523
  O      373.319      -3.484     113.933
  H      374.608      -2.981     112.429
  H      375.375      -3.646     113.886
  H      374.736      -1.975     113.887
  P      372.948      -3.449     115.491
  C      373.637      -5.929     115.623
  O      373.770      -4.632     116.194
  C      373.868      -6.992     116.693
  O      375.208      -6.878     117.222
  C      372.943      -6.866     117.897
  O      371.638      -7.323     117.602
  C      373.699      -7.689     118.925
  O      373.440      -9.087     118.761
  C      375.170      -7.361     118.585
  N      375.744      -6.383     119.509
  C      375.950      -6.817     120.812
  O      375.687      -7.954     121.200
  N      376.418      -5.872     121.687
  C      376.557      -4.541     121.418
  O      376.736      -3.694     122.289
  C      376.386      -4.152     120.010
  C      375.980      -5.073     119.135
  O      371.491      -3.413     115.807
  O      373.693      -2.133     116.024
  H      373.041      -1.414     116.122
  H      373.985      -9.540     119.437
  H      376.529      -6.169     122.647
  H      376.557      -3.118     119.744
  H      375.814      -4.806     118.096
  H      375.781      -8.272     118.615
  H      373.418      -7.416     119.945
  H      372.912      -5.822     118.230
  H      373.769      -7.981     116.226
  H      374.385      -6.042     114.830
  H      372.637      -6.025     115.187
  P      370.417      -6.965     118.572
  C      369.802      -9.307     119.429
  O      370.379      -8.047     119.753
  O      369.109      -6.734     117.892
  O      370.901      -5.636     119.329
  H      370.195      -4.965     119.269
  H      369.831      -9.944     120.288
  H      370.355      -9.758     118.632
  H      368.786      -9.166     119.124

 6  7  8  9  10  11  12  13  14  15  16  27  31  32  33  34  35 0
 6-311+G(2d,p)
 ****
 36  37 0
 6-311+G(2d,p)
 ****
 1  2  3  4  5  17  18  19  20  21  22  23  24  25 0
 3-21G
 ****
 26  28  29  30  38  39  40  41  42  43  44  45 0
 3-21G
 ****


