%nproc=1
%NoSave
%Mem=1900MB
#P OB98/GEN NMR

erre ene a

0 1
  C      199.487     -98.757      43.903
  O      199.400     -99.751      44.928
  P      200.645     -99.961      45.919
  C      201.669    -102.078      44.850
  O      201.829    -100.686      45.103
  C      202.635    -102.549      43.753
  O      202.577    -103.998      43.606
  C      202.303    -101.944      42.374
  O      203.502    -101.738      41.614
  C      201.511    -103.050      41.706
  O      201.505    -102.908      40.285
  C      202.243    -104.285      42.231
  N      200.739    -108.126      39.180
  C      201.613    -107.105      38.982
  N      201.978    -106.131      39.849
  C      201.358    -106.292      41.031
  C      200.454    -107.285      41.389
  C      200.138    -108.231      40.396
  N      199.230    -109.247      40.584
  N      200.018    -107.118      42.686
  C      200.614    -106.014      43.096
  N      201.459    -105.497      42.144
  O      200.327    -100.570      47.243
  O      201.216     -98.472      46.092
  H      202.432    -102.850      39.995
  H      201.460     -98.331      47.030
  H      202.068    -107.066      37.999
  H      200.462    -105.547      44.060
  H      203.179    -104.459      41.691
  H      200.468    -103.025      42.059
  H      201.743    -101.000      42.420
  H      203.663    -102.288      44.044
  H      200.639    -102.281      44.557
  H      198.986    -109.806      39.780
  H      198.669    -109.248      41.423
  H      201.823    -102.637      45.786
  P      203.780    -100.224      41.128
  C      202.135    -100.178      39.091
  O      202.431     -99.741      40.400
  O      205.045    -100.071      40.344
  O      203.786     -99.432      42.520
  H      203.018     -99.602      43.092
  H      201.130     -99.853      38.826
  H      202.179    -101.271      39.022
  H      202.842     -99.735      38.378
  H      198.579     -98.748      43.337
  H      200.309     -98.983      43.256
  H      199.638     -97.796      44.350

 3  4  5  6  7  8  9  10  11  12  22  25  29  30  31  32 0
 6-311+G(2d,p)
 ****
 33  36  37 0
 6-311+G(2d,p)
 ****
 1  2  13  14  15  16  17  18  19  20  21  23  24  26 0
 3-21G
 ****
 27  28  34  35  38  39  40  41  42  43  44  45  46  47  48 0
 3-21G
 ****


