%nproc=1
%NoSave
%Mem=1900MB
#P OB98/GEN NMR

erre ene a

0 1
  C     -187.601    -920.378    -477.880
  O     -187.170    -920.846    -479.146
  H     -188.665    -920.567    -477.784
  H     -187.419    -919.297    -477.807
  H     -187.066    -920.903    -477.078
  P     -185.589    -920.831    -479.429
  C     -185.343    -923.371    -480.045
  O     -185.090    -922.326    -479.117
  C     -184.629    -924.655    -479.600
  O     -183.193    -924.453    -479.721
  C     -184.927    -925.074    -478.163
  O     -184.981    -926.503    -478.099
  C     -183.712    -924.568    -477.379
  O     -183.527    -925.303    -476.178
  C     -182.599    -924.736    -478.431
  N     -181.452    -923.858    -478.164
  C     -180.395    -924.393    -477.447
  O     -180.467    -925.565    -477.020
  N     -179.309    -923.611    -477.151
  C     -179.326    -922.364    -477.485
  N     -178.235    -921.628    -477.144
  C     -180.443    -921.721    -478.215
  C     -181.455    -922.525    -478.533
  O     -185.043    -919.983    -478.186
  O     -185.215    -920.296    -480.769
  H     -182.651    -925.065    -475.813
  H     -185.479    -920.205    -477.345
  H     -180.415    -920.681    -478.462
  H     -182.317    -922.144    -479.072
  H     -182.231    -925.770    -478.457
  H     -183.836    -923.520    -477.130
  H     -185.859    -924.645    -477.769
  H     -184.884    -925.449    -480.315
  H     -177.491    -922.087    -476.637
  H     -184.988    -923.091    -481.043
  H     -178.156    -920.628    -477.324
  H     -186.420    -923.532    -480.088
  P     -186.405    -927.222    -478.325
  C     -185.675    -928.918    -480.130
  O     -186.472    -927.776    -479.825
  O     -187.596    -926.468    -477.875
  O     -186.231    -928.592    -477.476
  H     -187.090    -928.769    -477.031
  H     -185.811    -929.183    -481.158
  H     -185.972    -929.736    -479.508
  H     -184.644    -928.691    -479.953

 6  7  8  9  10  11  12  13  14  15  16  26  30  31  32  33  35 0
 6-311+G(2d,p)
 ****
 37  38 0
 6-311+G(2d,p)
 ****
 1  2  3  4  5  17  18  19  20  21  22  23  24  25 0
 3-21G
 ****
 27  28  29  34  36  39  40  41  42  43  44  45  46 0
 3-21G
 ****


