%nproc=1
%NoSave
%Mem=1900MB
#P OB98/GEN NMR

erre ene a

0 1
  C     -896.800    -418.116    -173.177
  O     -897.320    -418.180    -171.846
  P     -898.680    -418.917    -171.456
  C     -897.410    -420.843    -170.287
  O     -898.370    -420.488    -171.264
  C     -897.010    -422.320    -170.427
  O     -896.230    -422.508    -171.629
  C     -896.100    -422.864    -169.322
  O     -896.800    -423.058    -168.097
  C     -895.580    -424.151    -169.969
  O     -896.500    -425.220    -169.792
  C     -895.500    -423.751    -171.459
  N     -894.140    -423.599    -171.936
  C     -893.440    -424.787    -172.182
  O     -893.930    -425.885    -171.940
  N     -892.150    -424.711    -172.706
  C     -891.610    -423.540    -172.882
  N     -890.350    -423.527    -173.407
  C     -892.260    -422.283    -172.494
  C     -893.500    -422.380    -172.036
  O     -899.800    -418.644    -172.390
  O     -899.030    -418.417    -169.962
  H     -900.000    -418.476    -169.817
  H     -897.310    -424.977    -170.278
  H     -891.740    -421.344    -172.591
  H     -894.070    -421.494    -171.739
  H     -896.030    -424.481    -172.072
  H     -894.630    -424.435    -169.523
  H     -895.270    -422.150    -169.162
  H     -897.930    -422.926    -170.489
  H     -889.920    -424.408    -173.670
  H     -897.860    -420.691    -169.292
  H     -889.830    -422.677    -173.583
  H     -896.530    -420.189    -170.357
  P     -896.430    -422.110    -166.872
  C     -898.790    -421.040    -166.790
  O     -897.400    -420.826    -166.923
  O     -895.010    -421.533    -167.269
  O     -896.380    -422.807    -165.548
  H     -894.440    -421.471    -166.485
  H     -899.240    -420.115    -166.359
  H     -899.030    -421.862    -166.129
  H     -899.240    -421.205    -167.772
  H     -895.881    -417.569    -173.175
  H     -897.506    -417.624    -173.813
  H     -896.624    -419.107    -173.539

 3  4  5  6  7  8  9  10  11  12  13  24  27  28  29  30  32 0
 6-311+G(2d,p)
 ****
 34  35 0
 6-311+G(2d,p)
 ****
 1  2  14  15  16  17  18  19  20  21  22  23  25  26 0
 3-21G
 ****
 31  33  36  37  38  39  40  41  42  43  44  45  46 0
 3-21G
 ****


