%nproc=1
%NoSave
%Mem=1900MB
#P OB98/GEN NMR

erre ene a

0 1
  C     -165.832     895.186    -160.262
  O     -165.246     894.992    -161.533
  H     -166.550     894.381    -160.078
  H     -166.358     896.142    -160.232
  H     -165.064     895.159    -159.485
  P     -164.157     896.073    -162.003
  C     -162.617     894.592    -163.474
  O     -163.633     895.584    -163.444
  C     -163.230     893.197    -163.584
  O     -163.921     893.089    -164.859
  C     -162.199     892.059    -163.512
  O     -162.775     890.968    -162.782
  C     -162.036     891.651    -164.967
  O     -161.558     890.317    -165.099
  C     -163.456     891.871    -165.481
  N     -164.076     889.190    -169.698
  C     -164.142     888.805    -168.370
  N     -164.398     887.497    -168.121
  N     -163.952     889.622    -167.370
  C     -163.724     890.902    -167.757
  C     -163.634     891.408    -169.036
  C     -163.820     890.484    -170.134
  O     -163.758     890.759    -171.325
  N     -163.353     892.755    -169.011
  C     -163.286     893.054    -167.727
  N     -163.501     891.969    -166.929
  O     -162.909     895.788    -161.040
  O     -164.598     897.497    -161.946
  H     -162.182     889.728    -164.623
  H     -162.400     896.603    -160.883
  H     -164.217     888.515    -170.422
  H     -163.073     894.039    -167.328
  H     -164.135     891.059    -165.195
  H     -161.333     892.322    -165.470
  H     -164.584     886.818    -168.843
  H     -161.254     892.353    -163.052
  H     -164.458     887.201    -167.158
  H     -163.994     893.091    -162.804
  H     -162.024     894.659    -162.555
  H     -161.960     894.780    -164.330
  P     -162.385     890.823    -161.235
  C     -164.182     889.310    -160.127
  O     -162.883     889.392    -160.708
  O     -163.382     891.855    -160.518
  O     -160.958     891.154    -160.935
  H     -162.885     892.629    -160.213
  H     -164.374     888.302    -159.824
  H     -164.914     889.612    -160.846
  H     -164.233     889.954    -159.274

 6  7  8  9  10  11  12  13  14  15  26  29  33  34 0
 6-311+G(2d,p)
 ****
 36  38  39  40  41 0
 6-311+G(2d,p)
 ****
 1  2  3  4  5  16  17  18  19  20  21  22  23  24  25 0
 3-21G
 ****
 27  28  30  31  32  35  37  42  43  44  45  46  47 0
 3-21G
 ****
 48  49 0
 3-21G
 ****


