%nproc=1
%NoSave
%Mem=1900MB
#P OB98/GEN NMR

erre ene a

0 1
  C       14.261     -39.439      -9.723
  O       13.179     -38.655     -10.187
  H       13.905     -40.457      -9.547
  H       14.639     -39.029      -8.783
  H       15.061     -39.466     -10.469
  P       13.525     -37.165     -10.678
  C       12.717     -35.891     -12.827
  O       12.425     -36.809     -11.789
  C       11.728     -36.053     -13.983
  O       11.995     -37.313     -14.650
  C       10.263     -36.059     -13.543
  O        9.485     -35.413     -14.553
  C        9.914     -37.538     -13.509
  O        8.513     -37.762     -13.637
  C       10.770     -38.074     -14.667
  N       11.025     -39.508     -14.554
  C       10.134     -40.359     -15.215
  O        9.181     -39.893     -15.842
  N       10.313     -41.714     -15.118
  C       11.262     -42.185     -14.370
  N       11.372     -43.539     -14.294
  C       12.198     -41.327     -13.619
  C       12.030     -40.013     -13.763
  O       14.860     -37.404     -11.528
  O       13.665     -36.170      -9.577
  H        8.338     -38.721     -13.515
  H       14.812     -38.175     -12.117
  H       12.967     -41.766     -13.000
  H       12.678     -39.309     -13.255
  H       10.276     -37.887     -15.629
  H       10.240     -37.979     -12.560
  H       10.108     -35.564     -12.583
  H       11.916     -35.260     -14.716
  H       10.695     -44.090     -14.807
  H       13.735     -36.046     -13.197
  H       12.036     -44.014     -13.701
  H       12.656     -34.880     -12.413
  P        9.381     -33.817     -14.568
  C        8.625     -32.270     -16.497
  O        8.292     -33.366     -15.653
  O       10.679     -33.084     -14.625
  O        8.629     -33.501     -13.181
  H        9.051     -32.714     -12.786
  H        7.814     -32.078     -17.168
  H        9.504     -32.507     -17.059
  H        8.807     -31.402     -15.899

 6  7  8  9  10  11  12  13  14  15  16  26  30  31  32  33  35 0
 6-311+G(2d,p)
 ****
 37  38 0
 6-311+G(2d,p)
 ****
 1  2  3  4  5  17  18  19  20  21  22  23  24  25 0
 3-21G
 ****
 27  28  29  34  36  39  40  41  42  43  44  45  46 0
 3-21G
 ****


