%nproc=1
%NoSave
%Mem=1900MB
#P OB98/GEN NMR

erre ene a

0 1
  C      137.513     168.814     171.132
  O      137.951     168.222     169.926
  H      137.964     168.295     171.981
  H      137.836     169.858     171.149
  H      136.423     168.781     171.210
  P      137.339     166.788     169.549
  C      137.970     164.323     170.059
  O      138.278     165.694     170.260
  C      139.206     163.457     170.302
  O      140.098     163.591     169.160
  C      140.001     163.829     171.564
  O      140.470     162.623     172.176
  C      141.188     164.598     171.013
  O      142.320     164.554     171.875
  C      141.405     163.893     169.677
  N      143.966     163.906     165.284
  C      143.110     163.014     165.826
  N      142.426     163.113     166.984
  C      142.643     164.307     167.562
  C      143.480     165.319     167.125
  C      144.179     165.076     165.932
  N      145.106     165.947     165.406
  N      143.477     166.368     168.025
  C      142.674     165.983     168.998
  N      142.148     164.745     168.764
  O      137.713     166.652     167.996
  O      135.876     166.629     169.786
  H      143.038     165.089     171.481
  H      137.012     167.057     167.454
  H      142.964     162.094     165.264
  H      142.465     166.543     169.899
  H      141.962     162.955     169.780
  H      140.908     165.646     170.864
  H      139.426     164.413     172.292
  H      138.892     162.407     170.340
  H      137.634     164.179     169.027
  H      145.637     165.640     164.605
  H      145.356     166.770     165.933
  H      137.161     164.030     170.737
  P      139.383     161.692     172.900
  C      137.812     161.852     174.971
  O      138.863     162.443     174.215
  O      140.263     160.490     173.484
  O      138.308     161.194     171.988
  H      139.750     159.662     173.480
  H      137.584     162.474     175.811
  H      138.119     160.886     175.315
  H      136.943     161.752     174.355

 6  7  8  9  10  11  12  13  14  15  25  28  32  33  34  35 0
 6-311+G(2d,p)
 ****
 36  39  40 0
 6-311+G(2d,p)
 ****
 1  2  3  4  5  16  17  18  19  20  21  22  23  24 0
 3-21G
 ****
 26  27  29  30  31  37  38  41  42  43  44  45  46  47 0
 3-21G
 ****
 48 0
 3-21G
 ****


