%nproc=1
%NoSave
%Mem=1900MB
#P OB98/GEN NMR

erre ene a

0 1
  C      -83.333    -699.103     225.972
  O      -82.404    -698.299     225.226
  P      -82.065    -696.815     225.729
  C      -83.634    -695.305     224.276
  O      -83.368    -695.896     225.544
  C      -85.112    -694.913     224.176
  O      -85.451    -693.957     225.210
  C      -85.496    -694.235     222.871
  O      -85.626    -695.160     221.803
  C      -86.815    -693.569     223.253
  O      -87.906    -694.501     223.168
  C      -86.552    -693.165     224.719
  N      -86.289    -691.735     224.869
  C      -87.409    -690.910     224.963
  O      -88.563    -691.321     224.863
  N      -87.147    -689.575     225.137
  C      -85.915    -688.989     225.160
  O      -85.749    -687.783     225.301
  C      -84.775    -689.900     224.971
  C      -85.011    -691.209     224.831
  O      -81.107    -696.278     224.560
  O      -81.381    -696.715     227.052
  H      -88.654    -694.096     223.646
  H      -80.503    -695.604     224.915
  H      -87.951    -688.962     225.235
  H      -83.780    -689.475     224.966
  H      -84.181    -691.894     224.692
  H      -87.411    -693.432     225.340
  H      -87.063    -692.724     222.596
  H      -84.765    -693.450     222.621
  H      -85.719    -695.814     224.338
  H      -83.405    -696.020     223.480
  H      -82.987    -694.423     224.151
  P      -84.345    -695.330     220.839
  C      -85.365    -693.667     219.100
  O      -84.301    -693.985     219.969
  O      -84.876    -696.466     219.838
  O      -83.099    -695.682     221.576
  H      -85.830    -696.395     219.680
  H      -86.326    -694.013     219.490
  H      -85.184    -694.132     218.120
  H      -85.405    -692.583     218.975
  H      -83.440    -700.056     225.498
  H      -84.283    -698.612     226.005
  H      -82.967    -699.239     226.968

 3  4  5  6  7  8  9  10  11  12  13  23  28  29  30  31  32 0
 6-311+G(2d,p)
 ****
 33  34 0
 6-311+G(2d,p)
 ****
 1  2  14  15  16  17  18  19  20  21  22  24  25  26 0
 3-21G
 ****
 27  35  36  37  38  39  40  41  42  43  44  45 0
 3-21G
 ****


