%nproc=1
%NoSave
%Mem=1900MB
#P OB98/GEN NMR

erre ene a

0 1
  C     -205.318    -277.288    -356.364
  O     -205.168    -278.646    -356.729
  H     -205.619    -277.240    -355.312
  H     -206.096    -276.820    -356.974
  H     -204.377    -276.744    -356.480
  P     -204.473    -278.996    -358.130
  C     -205.313    -279.550    -360.508
  O     -205.643    -279.017    -359.231
  C     -206.482    -280.358    -361.071
  O     -206.603    -281.603    -360.310
  C     -207.851    -279.641    -360.984
  O     -208.630    -280.067    -362.116
  C     -208.400    -280.211    -359.693
  O     -209.774    -279.954    -359.552
  C     -207.966    -281.673    -359.842
  N     -208.074    -282.443    -358.617
  C     -209.354    -282.717    -358.137
  O     -210.387    -282.361    -358.702
  N     -209.406    -283.412    -356.957
  C     -208.340    -283.844    -356.230
  O     -208.450    -284.489    -355.187
  C     -207.013    -283.504    -356.768
  C     -206.944    -282.829    -357.918
  O     -203.583    -280.197    -358.134
  O     -203.663    -277.665    -358.494
  H     -202.727    -277.770    -358.237
  H     -210.164    -280.539    -358.872
  H     -210.325    -283.615    -356.594
  H     -206.145    -283.815    -356.204
  H     -205.978    -282.556    -358.347
  H     -208.546    -282.165    -360.630
  H     -207.901    -279.744    -358.832
  H     -207.757    -278.548    -360.994
  H     -206.254    -280.646    -362.112
  H     -204.436    -280.193    -360.396
  H     -205.066    -278.727    -361.190
  P     -209.156    -279.065    -363.252
  C     -211.397    -278.173    -364.173
  O     -210.760    -279.006    -363.207
  O     -208.610    -279.363    -364.609
  O     -208.707    -277.603    -362.770
  H     -208.463    -277.071    -363.561
  H     -212.458    -278.219    -364.040
  H     -211.146    -278.511    -365.157
  H     -211.065    -277.163    -364.048

 6  7  8  9  10  11  12  13  14  15  16  27  31  32  33  34  35 0
 6-311+G(2d,p)
 ****
 36  37 0
 6-311+G(2d,p)
 ****
 1  2  3  4  5  17  18  19  20  21  22  23  24  25 0
 3-21G
 ****
 26  28  29  30  38  39  40  41  42  43  44  45 0
 3-21G
 ****


