%nproc=1
%NoSave
%Mem=1900MB
#P OB98/GEN NMR

erre ene a

0 1
  C       35.118     -91.789     231.541
  O       36.390     -91.331     232.023
  P       37.445     -90.541     231.109
  C       37.411     -88.146     232.068
  O       38.127     -89.370     231.975
  C       37.706     -87.411     233.382
  O       37.083     -88.111     234.500
  C       39.205     -87.268     233.707
  O       39.378     -85.971     234.287
  C       39.409     -88.373     234.737
  O       40.583     -88.218     235.514
  C       38.098     -88.244     235.520
  N       37.788     -89.354     236.416
  C       38.632     -89.559     237.513
  O       39.633     -88.866     237.695
  N       38.330     -90.573     238.392
  C       37.290     -91.322     238.190
  N       37.045     -92.301     239.102
  C       36.390     -91.157     237.038
  C       36.693     -90.163     236.200
  O       36.878     -90.063     229.811
  O       38.644     -91.572     230.852
  H       38.997     -91.439     229.949
  H       41.317     -88.013     234.907
  H       35.530     -91.796     236.910
  H       36.061     -89.955     235.343
  H       38.106     -87.306     236.088
  H       39.478     -89.332     234.212
  H       39.854     -87.354     232.830
  H       37.234     -86.420     233.328
  H       37.682     -92.379     239.888
  H       36.339     -88.365     232.022
  H       36.263     -92.934     239.048
  H       37.668     -87.513     231.209
  P       40.028     -84.791     233.415
  C       38.080     -84.232     231.775
  O       38.835     -83.850     232.908
  O       40.433     -85.563     232.068
  O       41.229     -84.121     234.001
  H       41.165     -85.093     231.633
  H       37.019     -84.070     231.986
  H       38.227     -85.283     231.516
  H       38.372     -83.609     230.926
  H       34.595     -92.286     232.331
  H       35.268     -92.470     230.729
  H       34.542     -90.953     231.203

 3  4  5  6  7  8  9  10  11  12  13  24  27  28  29  30  32 0
 6-311+G(2d,p)
 ****
 34  35 0
 6-311+G(2d,p)
 ****
 1  2  14  15  16  17  18  19  20  21  22  23  25  26 0
 3-21G
 ****
 31  33  36  37  38  39  40  41  42  43  44  45  46 0
 3-21G
 ****


