%nproc=1
%NoSave
%Mem=1900MB
#P OB98/GEN NMR

erre ene a

0 1
  C     -202.398    -234.653      44.474
  O     -203.067    -235.033      43.283
  P     -204.573    -235.571      43.397
  C     -205.349    -233.793      41.665
  O     -205.558    -234.384      42.941
  C     -206.616    -233.885      40.811
  O     -207.747    -233.355      41.556
  C     -206.528    -233.100      39.498
  O     -207.275    -233.786      38.483
  C     -207.259    -231.811      39.807
  O     -207.751    -231.189      38.620
  C     -208.349    -232.318      40.750
  N     -212.461    -229.545      41.729
  C     -212.344    -230.710      40.995
  N     -213.457    -231.141      40.366
  N     -211.232    -231.392      40.891
  C     -210.197    -230.837      41.567
  C     -210.196    -229.697      42.342
  C     -211.425    -228.944      42.438
  O     -211.593    -227.893      43.049
  N     -208.965    -229.469      42.898
  C     -208.205    -230.444      42.434
  N     -208.899    -231.277      41.592
  O     -204.804    -235.661      44.983
  O     -204.816    -236.890      42.747
  H     -206.981    -230.805      38.160
  H     -204.778    -236.592      45.267
  H     -213.335    -229.050      41.769
  H     -207.156    -230.578      42.648
  H     -209.177    -232.779      40.196
  H     -206.586    -231.107      40.310
  H     -214.325    -230.627      40.352
  H     -205.505    -232.925      39.140
  H     -213.388    -231.968      39.787
  H     -206.832    -234.940      40.616
  H     -204.537    -234.322      41.160
  H     -205.053    -232.746      41.788
  P     -206.942    -233.374      36.965
  C     -205.144    -235.225      36.629
  O     -205.436    -233.843      36.704
  O     -206.843    -231.778      37.032
  O     -207.954    -233.837      35.971
  H     -207.041    -231.388      36.159
  H     -204.777    -235.456      35.626
  H     -206.020    -235.845      36.840
  H     -204.363    -235.458      37.360
  H     -201.410    -234.318      44.237
  H     -202.341    -235.493      45.135
  H     -202.938    -233.861      44.949

 3  4  5  6  7  8  9  10  11  12  23  26  30  31 0
 6-311+G(2d,p)
 ****
 33  35  36  37  38 0
 6-311+G(2d,p)
 ****
 1  2  13  14  15  16  17  18  19  20  21  22  24  25 0
 3-21G
 ****
 27  28  29  32  34  39  40  41  42  43  44  45  46  47  48  49 0
 3-21G
 ****


