%nproc=1
%NoSave
%Mem=1900MB
#P OB98/GEN NMR

erre ene a

0 1
  C     -897.670     181.973    -502.001
  O     -897.320     181.201    -503.156
  P     -897.980     181.364    -504.590
  C     -895.890     181.112    -506.151
  O     -897.090     180.540    -505.648
  C     -894.920     180.055    -506.707
  O     -894.540     179.121    -505.663
  C     -895.620     179.217    -507.796
  O     -895.670     179.694    -509.137
  C     -894.980     177.821    -507.665
  O     -893.870     177.653    -508.547
  C     -894.530     177.800    -506.198
  N     -894.880     173.223    -503.923
  C     -893.870     173.702    -504.741
  N     -892.860     172.863    -505.034
  N     -893.880     174.913    -505.243
  C     -894.990     175.619    -504.936
  C     -896.050     175.256    -504.155
  C     -896.030     173.925    -503.553
  O     -896.880     173.452    -502.810
  N     -897.020     176.242    -504.087
  C     -896.540     177.202    -504.859
  N     -895.310     176.897    -505.396
  O     -898.390     182.758    -504.976
  O     -899.340     180.473    -504.469
  H     -894.210     177.763    -509.463
  H     -900.000     180.912    -505.028
  H     -894.830     172.286    -503.534
  H     -897.040     178.153    -505.049
  H     -893.480     177.454    -506.132
  H     -895.710     177.063    -507.917
  H     -892.860     171.879    -504.768
  H     -896.650     179.092    -507.498
  H     -892.260     173.136    -505.792
  H     -894.000     180.515    -507.050
  H     -895.420     181.668    -505.339
  H     -896.130     181.836    -506.942
  P     -897.020     179.920    -509.988
  C     -896.330     182.328    -510.598
  O     -896.710     181.061    -511.105
  O     -897.990     180.709    -508.959
  O     -897.660     178.687    -510.511
  H     -898.910     180.665    -509.288
  H     -896.420     183.086    -511.386
  H     -895.260     182.302    -510.303
  H     -896.930     182.634    -509.728
  H     -897.074     181.660    -501.169
  H     -898.705     181.826    -501.774
  H     -897.492     183.010    -502.198

 3  4  5  6  7  8  9  10  11  12  23  26  30  31 0
 6-311+G(2d,p)
 ****
 33  35  36  37  38 0
 6-311+G(2d,p)
 ****
 1  2  13  14  15  16  17  18  19  20  21  22  24  25 0
 3-21G
 ****
 27  28  29  32  34  39  40  41  42  43  44  45  46  47  48  49 0
 3-21G
 ****


