%nproc=1
%NoSave
%Mem=1900MB
#P OB98/GEN NMR

erre ene a

0 1
  C      154.448    -248.713     -81.366
  O      154.277    -247.656     -82.286
  H      153.476    -248.957     -80.932
  H      155.125    -248.414     -80.562
  H      154.839    -249.600     -81.873
  P      155.568    -247.058     -83.024
  C      155.236    -247.451     -85.553
  O      155.083    -246.546     -84.465
  C      154.088    -248.470     -85.558
  O      152.873    -247.763     -85.906
  C      154.305    -249.593     -86.582
  O      154.186    -250.894     -86.011
  C      153.357    -249.218     -87.715
  O      152.921    -250.310     -88.497
  C      152.238    -248.458     -86.995
  N      151.516    -247.520     -87.853
  C      150.696    -248.059     -88.841
  O      150.522    -249.258     -89.039
  N      150.043    -247.145     -89.630
  C      150.139    -245.789     -89.540
  O      149.527    -245.023     -90.274
  C      151.043    -245.281     -88.496
  C      151.680    -246.156     -87.714
  O      156.766    -247.947     -83.049
  O      155.866    -245.694     -82.240
  H      152.344    -250.862     -87.927
  H      156.642    -245.815     -81.660
  H      149.434    -247.523     -90.338
  H      151.153    -244.209     -88.405
  H      152.353    -245.815     -86.932
  H      151.508    -249.152     -86.578
  H      153.879    -248.528     -88.387
  H      155.333    -249.580     -86.962
  H      153.962    -248.864     -84.544
  H      156.196    -247.962     -85.434
  H      155.241    -246.895     -86.497
  P      155.394    -251.908     -85.780
  C      154.224    -253.807     -84.387
  O      154.799    -253.382     -85.616
  O      156.422    -251.483     -84.785
  O      156.117    -251.976     -87.221
  H      157.067    -252.122     -87.045
  H      153.887    -254.818     -84.482
  H      153.395    -253.176     -84.144
  H      154.958    -253.747     -83.610

 6  7  8  9  10  11  12  13  14  15  16  26  31  32  33  34  35 0
 6-311+G(2d,p)
 ****
 36  37 0
 6-311+G(2d,p)
 ****
 1  2  3  4  5  17  18  19  20  21  22  23  24  25 0
 3-21G
 ****
 27  28  29  30  38  39  40  41  42  43  44  45 0
 3-21G
 ****


