%nproc=1
%NoSave
%Mem=1900MB
#P OB98/GEN NMR

erre ene a

0 1
  C     -622.401     -34.171     160.211
  O     -622.231     -33.134     161.159
  P     -622.572     -31.614     160.775
  C     -621.782     -29.905     158.949
  O     -621.666     -31.181     159.539
  C     -620.371     -29.364     158.643
  O     -619.648     -30.313     157.833
  C     -620.427     -28.044     157.893
  O     -620.342     -26.949     158.791
  C     -619.244     -28.139     156.949
  O     -618.025     -27.794     157.637
  C     -619.257     -29.650     156.596
  N     -620.172     -30.113     155.524
  C     -619.983     -29.664     154.223
  O     -619.061     -28.928     153.880
  N     -620.917     -30.088     153.308
  C     -621.959     -30.936     153.577
  O     -622.918     -31.112     152.817
  C     -621.945     -31.570     154.892
  C     -621.086     -31.115     155.805
  O     -621.958     -30.781     162.002
  O     -624.026     -31.318     160.573
  H     -617.757     -28.577     158.149
  H     -622.651     -30.554     162.645
  H     -620.868     -29.668     152.385
  H     -622.681     -32.350     155.091
  H     -621.079     -31.556     156.799
  H     -618.251     -29.999     156.328
  H     -619.341     -27.442     156.124
  H     -621.353     -27.983     157.300
  H     -619.832     -29.239     159.598
  H     -622.316     -29.224     159.617
  H     -622.366     -29.968     158.021
  P     -620.520     -25.454     158.249
  C     -619.284     -24.100     156.459
  O     -619.194     -25.149     157.393
  O     -620.876     -24.423     159.278
  O     -621.674     -25.598     157.142
  H     -622.546     -25.347     157.520
  H     -618.279     -23.881     156.076
  H     -619.691     -23.199     156.923
  H     -619.919     -24.414     155.619
  H     -622.123     -35.106     160.651
  H     -621.782     -33.980     159.359
  H     -623.426     -34.211     159.906

 3  4  5  6  7  8  9  10  11  12  13  23  28  29  30  31  32 0
 6-311+G(2d,p)
 ****
 33  34 0
 6-311+G(2d,p)
 ****
 1  2  14  15  16  17  18  19  20  21  22  24  25  26  27 0
 3-21G
 ****
 35  36  37  38  39  40  41  42  43  44  45 0
 3-21G
 ****


