%nproc=1
%NoSave
%Mem=1900MB
#P OB98/GEN NMR

erre ene a

0 1
  C     -129.620    -176.084    -693.819
  O     -129.668    -175.107    -694.846
  P     -128.613    -173.892    -694.861
  C     -129.546    -171.647    -694.010
  O     -128.976    -172.909    -693.649
  C     -131.003    -171.826    -694.434
  O     -131.739    -172.583    -693.441
  C     -131.772    -170.522    -694.576
  O     -131.390    -169.807    -695.746
  C     -133.210    -171.018    -694.575
  O     -133.582    -171.521    -695.875
  C     -133.133    -172.188    -693.554
  N     -133.686    -171.825    -692.258
  C     -135.039    -172.123    -692.076
  O     -135.718    -172.572    -693.002
  N     -135.601    -171.879    -690.843
  C     -134.905    -171.292    -689.921
  N     -135.486    -171.128    -688.707
  C     -133.517    -170.818    -690.139
  C     -132.970    -171.137    -691.310
  O     -128.438    -173.227    -696.185
  O     -127.241    -174.565    -694.378
  H     -126.531    -174.327    -695.000
  H     -133.470    -170.777    -696.505
  H     -132.997    -170.274    -689.364
  H     -131.951    -170.863    -691.546
  H     -133.661    -173.071    -693.947
  H     -133.925    -170.243    -694.309
  H     -131.603    -169.897    -693.692
  H     -131.023    -172.388    -695.386
  H     -136.428    -171.481    -688.586
  H     -128.962    -171.233    -694.842
  H     -134.944    -170.994    -687.855
  H     -129.472    -170.963    -693.163
  P     -131.693    -168.230    -695.752
  C     -133.774    -167.547    -697.157
  O     -133.275    -168.047    -695.921
  O     -131.106    -167.754    -697.178
  O     -131.080    -167.468    -694.634
  H     -130.708    -166.860    -697.081
  H     -134.834    -167.811    -697.240
  H     -133.233    -167.975    -698.000
  H     -133.675    -166.463    -697.167
  H     -130.394    -176.806    -693.977
  H     -129.762    -175.611    -692.870
  H     -128.668    -176.572    -693.836

 3  4  5  6  7  8  9  10  11  12  13  24  27  28  29  30  32 0
 6-311+G(2d,p)
 ****
 34  35 0
 6-311+G(2d,p)
 ****
 1  2  14  15  16  17  18  19  20  21  22  23  25  26 0
 3-21G
 ****
 31  33  36  37  38  39  40  41  42  43  44  45  46 0
 3-21G
 ****


