%nproc=1
%NoSave
%Mem=1900MB
#P OB98/GEN NMR

erre ene a

0 1
  C       -0.367      54.147     158.678
  O       -1.750      54.416     158.804
  H       -0.163      53.842     157.648
  H       -0.075      53.336     159.350
  H        0.211      55.047     158.900
  P       -2.267      54.848     160.260
  C       -2.086      53.692     162.569
  O       -2.081      53.531     161.157
  C       -2.309      52.349     163.259
  O       -1.407      51.361     162.731
  C       -2.085      52.372     164.765
  O       -3.244      52.841     165.433
  C       -1.842      50.896     165.044
  O       -3.104      50.205     165.121
  C       -1.070      50.436     163.796
  N        2.896      48.079     166.045
  C        1.566      47.990     166.254
  N        0.573      48.685     165.660
  C        1.068      49.543     164.752
  C        2.403      49.745     164.433
  C        3.343      48.960     165.121
  N        4.701      49.055     164.906
  N        2.534      50.710     163.458
  C        1.296      51.041     163.151
  N        0.374      50.390     163.931
  O       -3.611      55.491     160.305
  O       -1.055      55.773     160.751
  H       -2.902      49.270     165.316
  H       -0.202      55.384     160.492
  H        1.256      47.266     167.002
  H        1.013      51.728     162.362
  H       -1.383      49.436     163.472
  H       -1.328      50.726     165.991
  H       -1.188      52.940     165.034
  H       -3.329      52.016     163.023
  H       -2.871      54.396     162.866
  H        5.305      48.602     165.573
  H        5.034      49.802     164.314
  H       -1.117      54.112     162.858
  P       -3.239      53.106     167.015
  C       -3.266      51.580     169.084
  O       -3.462      51.663     167.677
  O       -4.168      54.178     167.465
  O       -1.710      53.426     167.356
  H       -1.647      53.854     168.231
  H       -3.442      50.576     169.410
  H       -3.948      52.240     169.579
  H       -2.261      51.861     169.321

 6  7  8  9  10  11  12  13  14  15  25  28  32  33  34  35 0
 6-311+G(2d,p)
 ****
 36  39  40 0
 6-311+G(2d,p)
 ****
 1  2  3  4  5  16  17  18  19  20  21  22  23  24 0
 3-21G
 ****
 26  27  29  30  31  37  38  41  42  43  44  45  46  47 0
 3-21G
 ****
 48 0
 3-21G
 ****


