%nproc=1
%NoSave
%Mem=1900MB
#P OB98/GEN NMR

erre ene a

0 1
  C      -10.142     771.725     372.330
  O      -10.018     770.402     372.825
  P      -10.981     769.281     372.195
  C       -9.444     767.615     373.462
  O      -10.771     767.968     373.104
  C       -9.433     766.940     374.832
  O       -9.519     767.929     375.879
  C      -10.581     765.978     375.081
  O      -10.354     764.709     374.509
  C      -10.566     765.886     376.599
  O       -9.521     764.999     377.019
  C      -10.221     767.330     377.003
  N      -14.308     767.683     380.050
  C      -13.364     766.737     379.929
  N      -12.307     766.707     379.077
  C      -12.313     767.791     378.279
  C      -13.221     768.827     378.273
  C      -14.266     768.755     379.216
  N      -15.213     769.741     379.369
  N      -12.897     769.761     377.312
  C      -11.799     769.307     376.766
  N      -11.392     768.126     377.313
  O      -10.243     768.910     370.825
  O      -12.387     769.711     371.972
  H       -9.402     765.134     377.978
  H      -10.880     768.518     370.196
  H      -13.452     765.882     380.593
  H      -11.247     769.805     375.965
  H       -9.551     767.372     377.866
  H      -11.496     765.510     377.009
  H      -11.532     766.410     374.749
  H       -8.464     766.427     374.943
  H       -8.825     768.518     373.507
  H      -15.808     769.711     380.184
  H      -15.061     770.629     378.891
  H       -9.034     766.938     372.705
  P      -11.648     763.889     374.021
  C      -11.642     763.882     371.417
  O      -11.233     763.243     372.608
  O      -12.682     765.039     373.620
  O      -12.194     762.948     375.050
  H      -13.600     764.710     373.699
  H      -11.032     763.508     370.591
  H      -11.505     764.961     371.484
  H      -12.693     763.655     371.217
  H       -9.446     772.361     372.835
  H      -11.137     772.078     372.502
  H       -9.937     771.734     371.280

 3  4  5  6  7  8  9  10  11  12  22  25  29  30  31  32 0
 6-311+G(2d,p)
 ****
 33  36  37 0
 6-311+G(2d,p)
 ****
 1  2  13  14  15  16  17  18  19  20  21  23  24  26 0
 3-21G
 ****
 27  28  34  35  38  39  40  41  42  43  44  45  46  47  48 0
 3-21G
 ****


