%nproc=1
%NoSave
%Mem=1900MB
#P OB98/GEN NMR

erre ene a

0 1
  C        4.837     172.409      20.431
  O        5.947     173.105      20.961
  H        4.562     172.865      19.477
  H        3.989     172.485      21.116
  H        5.090     171.358      20.262
  P        6.630     172.479      22.275
  C        9.247     172.337      22.150
  O        8.092     173.133      22.349
  C        9.570     172.225      20.660
  O        9.632     173.558      20.096
  C       10.900     171.532      20.367
  O       10.752     170.744      19.185
  C       11.852     172.686      20.105
  O       12.967     172.286      19.308
  C       10.916     173.717      19.461
  N       11.415     175.084      19.602
  C       12.530     175.430      18.833
  O       13.057     174.595      18.097
  N       13.047     176.695      18.945
  C       12.541     177.523      19.806
  N       13.112     178.755      19.885
  C       11.399     177.184      20.676
  C       10.885     175.966      20.517
  O        6.906     170.973      21.811
  O        5.806     172.606      23.512
  H       12.645     172.132      18.392
  H        7.235     170.901      20.899
  H       11.021     177.903      21.388
  H       10.039     175.636      21.110
  H       10.788     173.507      18.392
  H       12.242     173.071      21.056
  H       11.251     170.903      21.184
  H        8.738     171.713      20.163
  H       13.906     178.941      19.285
  H        9.095     171.336      22.565
  H       12.834     179.458      20.553
  H       10.078     172.807      22.685
  P       11.475     169.318      19.098
  C       10.409     167.850      17.266
  O       11.419     168.796      17.582
  O       11.064     168.318      20.126
  O       13.028     169.696      19.269
  H       13.448     169.001      19.814
  H       10.480     167.585      16.232
  H        9.447     168.277      17.460
  H       10.539     166.975      17.868

 6  7  8  9  10  11  12  13  14  15  16  26  30  31  32  33  35 0
 6-311+G(2d,p)
 ****
 37  38 0
 6-311+G(2d,p)
 ****
 1  2  3  4  5  17  18  19  20  21  22  23  24  25 0
 3-21G
 ****
 27  28  29  34  36  39  40  41  42  43  44  45  46 0
 3-21G
 ****


