%nproc=1
%NoSave
%Mem=1900MB
#P OB98/GEN NMR

erre ene a

0 1
  C      430.433      89.471     -81.901
  O      429.705      90.616     -82.302
  H      429.776      88.600     -81.967
  H      430.766      89.582     -80.868
  H      431.294      89.309     -82.555
  P      430.485      92.004     -82.476
  C      431.732      91.308     -84.629
  O      431.846      91.676     -83.261
  C      432.847      91.950     -85.460
  O      434.136      91.465     -84.966
  C      432.792      91.613     -86.967
  O      433.350      92.732     -87.670
  C      433.709      90.407     -87.027
  O      434.054      90.054     -88.342
  C      434.832      90.897     -86.099
  N      435.777      89.879     -85.666
  C      437.065      90.292     -85.335
  O      437.462      91.456     -85.376
  N      437.923      89.299     -84.939
  C      437.624      87.970     -84.836
  O      438.428      87.130     -84.446
  C      436.251      87.596     -85.204
  C      435.403      88.550     -85.592
  O      430.651      92.814     -81.237
  O      429.620      92.783     -83.579
  H      429.060      93.453     -83.139
  H      433.237      89.946     -88.871
  H      438.860      89.581     -84.692
  H      435.984      86.546     -85.145
  H      434.378      88.304     -85.866
  H      435.379      91.719     -86.577
  H      433.206      89.535     -86.602
  H      431.773      91.429     -87.324
  H      432.834      93.033     -85.297
  H      430.757      91.645     -84.999
  H      431.783      90.214     -84.709
  P      432.731      93.324     -89.027
  C      431.857      95.636     -88.248
  O      431.520      94.307     -88.639
  O      432.358      92.277     -90.028
  O      433.849      94.309     -89.614
  H      433.753      94.375     -90.585
  H      430.963      96.178     -88.019
  H      432.374      96.123     -89.048
  H      432.487      95.605     -87.383

 6  7  8  9  10  11  12  13  14  15  16  27  31  32  33  34  35 0
 6-311+G(2d,p)
 ****
 36  37 0
 6-311+G(2d,p)
 ****
 1  2  3  4  5  17  18  19  20  21  22  23  24  25 0
 3-21G
 ****
 26  28  29  30  38  39  40  41  42  43  44  45 0
 3-21G
 ****


