%nproc=1
%NoSave
%Mem=1900MB
#P OB98/GEN NMR

erre ene a

0 1
  C     -221.246      -8.202     131.438
  O     -219.931      -7.690     131.375
  H     -221.971      -7.384     131.483
  H     -221.437      -8.795     130.540
  H     -221.356      -8.845     132.316
  P     -219.494      -6.700     132.559
  C     -219.625      -4.665     130.959
  O     -220.068      -5.251     132.174
  C     -220.794      -4.013     130.232
  O     -221.804      -4.998     129.929
  C     -221.515      -2.930     131.027
  O     -220.808      -1.698     131.006
  C     -222.823      -2.839     130.253
  O     -222.635      -2.033     129.076
  C     -223.075      -4.301     129.856
  N     -227.905      -5.993     130.285
  C     -227.261      -5.345     129.286
  N     -225.984      -4.917     129.246
  C     -225.339      -5.232     130.381
  C     -225.861      -5.889     131.483
  C     -227.211      -6.273     131.412
  N     -227.861      -6.917     132.441
  N     -224.900      -6.048     132.456
  C     -223.814      -5.497     131.955
  N     -224.032      -4.984     130.703
  O     -217.913      -6.538     132.348
  O     -219.815      -7.172     133.938
  H     -222.506      -1.115     129.383
  H     -217.484      -6.467     133.220
  H     -227.855      -5.148     128.397
  H     -222.853      -5.453     132.456
  H     -223.422      -4.380     128.819
  H     -223.633      -2.389     130.832
  H     -221.721      -3.259     132.050
  H     -220.420      -3.613     129.281
  H     -219.191      -5.440     130.319
  H     -228.756      -7.339     132.259
  H     -227.330      -7.130     133.280
  H     -218.854      -3.921     131.186
  P     -219.990      -1.292     132.329
  C     -221.686       0.609     132.820
  O     -221.057      -0.577     133.291
  O     -219.074      -0.080     131.829
  O     -219.183      -2.387     132.936
  H     -218.279      -0.010     132.392
  H     -222.367       0.971     133.562
  H     -222.222       0.395     131.919
  H     -220.943       1.354     132.625

 6  7  8  9  10  11  12  13  14  15  25  28  32  33  34  35 0
 6-311+G(2d,p)
 ****
 36  39  40 0
 6-311+G(2d,p)
 ****
 1  2  3  4  5  16  17  18  19  20  21  22  23  24 0
 3-21G
 ****
 26  27  29  30  31  37  38  41  42  43  44  45  46  47  48 0
 3-21G
 ****


