%nproc=1
%NoSave
%Mem=1900MB
#P OB98/GEN NMR

erre ene a

0 1
  C      104.882     -59.901    -186.761
  O      104.711     -58.553    -186.346
  P      103.498     -58.213    -185.350
  C      101.808     -57.913    -187.293
  O      102.141     -58.619    -186.104
  C      100.365     -57.409    -187.252
  O       99.470     -58.558    -187.282
  C      100.009     -56.589    -186.007
  O       99.033     -55.612    -186.406
  C       99.337     -57.608    -185.104
  O       98.514     -56.996    -184.109
  C       98.592     -58.441    -186.139
  N       96.921     -61.100    -182.091
  C       97.129     -59.777    -182.278
  N       97.576     -59.146    -183.385
  C       97.811     -60.029    -184.368
  C       97.684     -61.406    -184.317
  C       97.209     -61.951    -183.109
  N       96.985     -63.294    -182.921
  N       98.050     -61.973    -185.523
  C       98.398     -60.960    -186.286
  N       98.246     -59.765    -185.640
  O      103.474     -56.615    -185.359
  O      103.648     -58.746    -183.960
  H       98.010     -57.700    -183.658
  H      103.760     -56.272    -184.487
  H       96.899     -59.143    -181.422
  H       98.765     -61.035    -187.302
  H       97.661     -57.958    -186.472
  H      100.101     -58.207    -184.585
  H      100.866     -56.098    -185.529
  H      100.177     -56.829    -188.165
  H      101.921     -58.587    -188.147
  H       96.517     -63.588    -182.079
  H       97.012     -63.910    -183.729
  H      102.499     -57.068    -187.421
  P       99.452     -54.072    -186.259
  C       98.079     -54.055    -184.054
  O       99.276     -53.692    -184.710
  O       98.254     -53.291    -186.976
  O      100.781     -53.732    -186.866
  H       98.572     -52.435    -187.330
  H       98.300     -54.292    -183.009
  H       97.605     -54.928    -184.521
  H       97.380     -53.206    -184.094
  H      105.725     -59.968    -187.417
  H      104.003     -60.230    -187.275
  H      105.047     -60.520    -185.904

 3  4  5  6  7  8  9  10  11  12  22  25  29  30  31  32 0
 6-311+G(2d,p)
 ****
 33  36  37 0
 6-311+G(2d,p)
 ****
 1  2  13  14  15  16  17  18  19  20  21  23  24  26 0
 3-21G
 ****
 27  28  34  35  38  39  40  41  42  43  44  45  46  47  48 0
 3-21G
 ****


