%nproc=1
%NoSave
%Mem=1900MB
#P OB98/GEN NMR

erre ene a

0 1
  C      129.713    -740.495    -296.926
  O      129.460    -741.738    -296.303
  P      128.776    -742.911    -297.182
  C      131.062    -743.931    -297.947
  O      129.855    -743.272    -298.320
  C      131.827    -744.406    -299.202
  O      130.997    -745.352    -299.940
  C      132.232    -743.277    -300.162
  O      133.540    -743.632    -300.688
  C      131.171    -743.357    -301.239
  O      131.636    -742.779    -302.468
  C      130.960    -744.876    -301.315
  N      129.696    -745.246    -301.949
  C      129.591    -744.986    -303.311
  O      130.472    -744.411    -303.968
  N      128.413    -745.370    -303.907
  C      127.320    -745.892    -303.272
  O      126.289    -746.223    -303.829
  C      127.445    -746.029    -301.797
  C      128.610    -745.692    -301.230
  O      127.665    -742.065    -297.959
  O      128.285    -744.052    -296.363
  H      127.945    -741.164    -298.211
  H      132.384    -743.326    -302.813
  H      128.334    -745.230    -304.895
  H      126.588    -746.366    -301.251
  H      128.726    -745.756    -300.145
  H      131.778    -745.368    -301.855
  H      130.260    -742.839    -300.923
  H      132.284    -742.302    -299.675
  H      132.729    -744.937    -298.855
  H      130.846    -744.810    -297.320
  H      131.668    -743.233    -297.344
  P      134.830    -742.953    -300.030
  C      135.290    -745.007    -298.464
  O      135.048    -743.617    -298.580
  O      134.248    -741.503    -299.676
  O      136.025    -742.893    -300.927
  H      133.391    -741.533    -299.233
  H      135.646    -745.202    -297.440
  H      136.070    -745.320    -299.159
  H      134.385    -745.568    -298.645
  H      130.164    -739.828    -296.221
  H      128.792    -740.076    -297.274
  H      130.375    -740.639    -297.754

 3  4  5  6  7  8  9  10  11  12  13  24  28  29  30  31  32 0
 6-311+G(2d,p)
 ****
 33  34 0
 6-311+G(2d,p)
 ****
 1  2  14  15  16  17  18  19  20  21  22  23  25  26  27 0
 3-21G
 ****
 35  36  37  38  39  40  41  42  43  44  45 0
 3-21G
 ****


