%nproc=1
%NoSave
%Mem=1900MB
#P OB98/GEN NMR

erre ene a

0 1
  C      326.367      34.260    -739.901
  O      326.768      35.586    -740.185
  H      325.863      34.251    -738.927
  H      327.239      33.601    -739.845
  H      325.669      33.892    -740.656
  P      327.447      35.902    -741.603
  C      325.673      37.642    -742.262
  O      326.268      36.392    -742.579
  C      324.454      37.900    -743.148
  O      323.489      36.838    -742.947
  C      323.754      39.235    -742.867
  O      323.311      39.788    -744.101
  C      322.557      38.825    -742.021
  O      321.472      39.755    -742.137
  C      322.230      37.440    -742.589
  N      317.692      36.429    -740.621
  C      318.043      37.264    -741.656
  N      317.044      37.959    -742.241
  N      319.276      37.419    -742.082
  C      320.171      36.651    -741.410
  C      319.943      35.778    -740.368
  C      318.585      35.628    -739.897
  O      318.210      34.912    -738.981
  N      321.116      35.202    -739.933
  C      322.047      35.728    -740.720
  N      321.524      36.618    -741.619
  O      328.298      34.805    -742.167
  O      328.292      37.236    -741.344
  H      320.830      39.535    -741.429
  H      329.236      37.029    -741.214
  H      316.728      36.353    -740.329
  H      323.099      35.508    -740.663
  H      321.598      37.489    -743.482
  H      322.850      38.767    -740.969
  H      316.071      37.884    -741.982
  H      324.398      39.952    -742.343
  H      317.278      38.569    -743.025
  H      324.777      37.844    -744.198
  H      326.417      38.431    -742.418
  H      325.372      37.643    -741.203
  P      324.287      40.760    -744.911
  C      324.858      38.838    -746.535
  O      325.373      39.859    -745.682
  O      324.856      41.905    -744.134
  O      323.359      41.283    -746.116
  H      323.649      42.179    -746.369
  H      325.670      38.310    -746.989
  H      324.251      39.282    -747.296
  H      324.267      38.157    -745.959

 6  7  8  9  10  11  12  13  14  15  26  29  33  34 0
 6-311+G(2d,p)
 ****
 36  38  39  40  41 0
 6-311+G(2d,p)
 ****
 1  2  3  4  5  16  17  18  19  20  21  22  23  24  25 0
 3-21G
 ****
 27  28  30  31  32  35  37  42  43  44  45  46  47 0
 3-21G
 ****
 48  49 0
 3-21G
 ****


