%nproc=1
%NoSave
%Mem=1900MB
#P OB98/GEN NMR

erre ene a

0 1
  C      902.702    -284.569       7.980
  O      903.732    -283.808       8.636
  P      904.386    -282.508       7.960
  C      906.916    -283.031       7.952
  O      905.858    -282.288       8.563
  C      907.790    -283.730       8.992
  O      907.046    -284.766       9.684
  C      909.029    -284.410       8.429
  O      910.049    -283.453       8.163
  C      909.350    -285.417       9.527
  O      910.061    -284.775      10.599
  C      907.956    -285.844       9.987
  N      907.162    -290.841      10.782
  C      907.576    -289.850      11.609
  N      907.769    -288.539      11.316
  C      907.452    -288.289      10.026
  C      907.016    -289.190       9.072
  C      906.867    -290.536       9.486
  N      906.448    -291.541       8.653
  N      906.826    -288.574       7.856
  C      907.125    -287.299       8.078
  N      907.503    -287.078       9.382
  O      903.517    -281.288       8.003
  O      904.673    -282.937       6.441
  H      910.178    -285.437      11.316
  H      904.641    -282.148       5.860
  H      907.786    -290.144      12.624
  H      907.065    -286.518       7.348
  H      907.924    -285.984      11.077
  H      909.985    -286.245       9.169
  H      908.781    -284.948       7.508
  H      908.071    -282.993       9.752
  H      907.524    -282.353       7.358
  H      906.407    -292.474       9.011
  H      906.287    -291.328       7.681
  H      906.450    -283.777       7.282
  P      911.026    -283.638       6.910
  C      913.238    -284.376       8.000
  O      912.506    -283.304       7.416
  O      910.619    -282.952       5.661
  O      911.077    -285.233       6.707
  H      911.240    -285.436       5.769
  H      912.915    -284.514       9.048
  H      914.305    -284.133       7.993
  H      913.077    -285.295       7.449
  H      902.412    -285.388       8.604
  H      903.073    -284.944       7.049
  H      901.855    -283.941       7.799

 3  4  5  6  7  8  9  10  11  12  22  25  29  30  31  32 0
 6-311+G(2d,p)
 ****
 33  36  37 0
 6-311+G(2d,p)
 ****
 1  2  13  14  15  16  17  18  19  20  21  23  24  26 0
 3-21G
 ****
 27  28  34  35  38  39  40  41  42  43  44  45  46  47  48 0
 3-21G
 ****


