%nproc=1
%NoSave
%Mem=1900MB
#P OB98/GEN NMR

erre ene a

0 1
  C     -517.126     170.193     -83.187
  O     -518.000     171.301     -83.380
  P     -517.671     172.332     -84.558
  C     -518.084     174.783     -83.836
  O     -518.648     173.605     -84.419
  C     -518.870     176.032     -84.268
  O     -518.771     176.171     -85.716
  C     -520.376     175.986     -83.959
  O     -520.815     176.475     -82.695
  C     -520.928     176.943     -85.010
  O     -520.797     178.304     -84.548
  C     -520.011     176.726     -86.215
  N     -523.132     176.468     -90.270
  C     -522.747     177.505     -89.480
  N     -521.913     177.487     -88.421
  C     -521.448     176.247     -88.203
  C     -521.741     175.098     -88.919
  C     -522.636     175.238     -89.992
  N     -523.029     174.181     -90.788
  N     -521.078     174.015     -88.395
  C     -520.407     174.494     -87.364
  N     -520.585     175.845     -87.217
  O     -517.570     171.757     -85.930
  O     -516.255     172.947     -84.094
  H     -521.053     178.872     -85.300
  H     -515.703     173.091     -84.885
  H     -523.173     178.474     -89.742
  H     -519.783     173.907     -86.704
  H     -519.760     177.665     -86.723
  H     -521.989     176.782     -85.210
  H     -520.779     174.977     -84.125
  H     -518.421     176.916     -83.816
  H     -517.039     174.881     -84.151
  H     -523.703     174.362     -91.510
  H     -522.712     173.251     -90.568
  H     -518.079     174.648     -82.755
  P     -521.396     175.491     -81.573
  C     -523.743     176.193     -80.638
  O     -522.349     176.401     -80.654
  O     -520.374     174.708     -80.826
  O     -522.441     174.600     -82.400
  H     -523.226     175.091     -82.713
  H     -524.171     176.754     -79.807
  H     -523.973     175.136     -80.507
  H     -524.179     176.554     -81.572
  H     -517.477     169.600     -82.368
  H     -516.140     170.549     -82.972
  H     -517.104     169.597     -84.075

 3  4  5  6  7  8  9  10  11  12  22  25  29  30  31  32 0
 6-311+G(2d,p)
 ****
 33  36  37 0
 6-311+G(2d,p)
 ****
 1  2  13  14  15  16  17  18  19  20  21  23  24  26 0
 3-21G
 ****
 27  28  34  35  38  39  40  41  42  43  44  45  46  47  48 0
 3-21G
 ****


