%nproc=1
%NoSave
%Mem=1900MB
#P OB98/GEN NMR

erre ene a

0 1
  C       90.719     312.244    -445.925
  O       89.432     312.751    -446.222
  H       91.208     311.960    -446.864
  H       90.641     311.357    -445.290
  H       91.323     313.010    -445.430
  P       88.535     313.201    -444.966
  C       89.083     315.732    -445.044
  O       89.246     314.508    -444.357
  C       89.123     316.908    -444.064
  O       87.993     316.858    -443.163
  C       90.371     316.954    -443.193
  O       91.451     317.561    -443.882
  C       89.883     317.782    -442.013
  O       89.909     319.198    -442.312
  C       88.439     317.285    -441.847
  N       88.192     316.123    -436.942
  C       88.272     317.348    -437.561
  N       88.362     318.433    -436.750
  N       88.285     317.511    -438.854
  C       88.231     316.342    -439.537
  C       88.129     315.065    -439.037
  C       88.083     314.909    -437.598
  O       87.944     313.851    -436.988
  N       88.072     314.137    -440.048
  C       88.184     314.854    -441.156
  N       88.299     316.195    -440.893
  O       88.836     312.074    -443.867
  O       87.074     313.327    -445.235
  H       89.444     319.350    -443.154
  H       88.045     311.959    -443.306
  H       88.168     316.065    -435.937
  H       88.196     314.443    -442.151
  H       87.764     318.081    -441.517
  H       90.510     317.645    -441.129
  H       88.684     318.353    -435.793
  H       90.641     315.950    -442.846
  H       88.443     319.336    -437.197
  H       89.024     317.831    -444.646
  H       88.111     315.734    -445.559
  H       89.879     315.850    -445.789
  P       92.940     317.162    -443.433
  C       93.070     314.762    -444.443
  O       92.953     315.563    -443.272
  O       93.023     317.691    -441.926
  O       94.031     317.737    -444.290
  H       93.952     317.743    -441.636
  H       93.063     313.728    -444.170
  H       93.987     314.993    -444.943
  H       92.247     314.963    -445.097

 6  7  8  9  10  11  12  13  14  15  26  29  33  34 0
 6-311+G(2d,p)
 ****
 36  38  39  40  41 0
 6-311+G(2d,p)
 ****
 1  2  3  4  5  16  17  18  19  20  21  22  23  24  25 0
 3-21G
 ****
 27  28  30  31  32  35  37  42  43  44  45  46  47 0
 3-21G
 ****
 48  49 0
 3-21G
 ****


