%nproc=1
%NoSave
%Mem=1900MB
#P OB98/GEN NMR

erre ene a

0 1
  C     -241.062     743.194     195.016
  O     -240.594     742.770     193.739
  P     -240.405     743.822     192.533
  C     -242.860     744.154     191.797
  O     -241.622     743.521     191.532
  C     -243.724     744.142     190.537
  O     -243.085     744.865     189.481
  C     -244.006     742.737     189.979
  O     -244.979     742.060     190.760
  C     -244.419     743.079     188.557
  O     -245.785     743.517     188.519
  C     -243.482     744.259     188.218
  N     -242.320     743.870     187.435
  C     -242.431     744.057     186.052
  O     -243.438     744.525     185.542
  N     -241.344     743.715     185.265
  C     -240.276     743.225     185.808
  N     -239.208     742.979     184.992
  C     -240.143     742.975     187.258
  C     -241.198     743.315     188.007
  O     -239.060     743.826     191.911
  O     -240.826     745.234     193.175
  H     -246.328     742.792     188.880
  H     -240.077     745.708     193.608
  H     -239.238     742.549     187.661
  H     -241.174     743.185     189.068
  H     -244.035     745.045     187.686
  H     -244.303     742.247     187.851
  H     -243.079     742.158     189.966
  H     -244.684     744.651     190.782
  H     -239.283     743.332     184.043
  H     -242.671     745.201     192.074
  H     -238.269     742.891     185.360
  H     -243.361     743.651     192.632
  P     -244.496     740.795     191.619
  C     -243.521     739.286     189.730
  O     -244.591     739.530     190.615
  O     -245.681     740.577     192.656
  O     -243.173     740.975     192.279
  H     -245.432     740.933     193.538
  H     -243.637     738.285     189.308
  H     -242.564     739.330     190.263
  H     -243.538     740.021     188.921
  H     -241.118     742.351     195.673
  H     -242.033     743.631     194.913
  H     -240.386     743.918     195.421

 3  4  5  6  7  8  9  10  11  12  13  23  27  28  29  30  32 0
 6-311+G(2d,p)
 ****
 34  35 0
 6-311+G(2d,p)
 ****
 1  2  14  15  16  17  18  19  20  21  22  24  25  26 0
 3-21G
 ****
 31  33  36  37  38  39  40  41  42  43  44  45  46 0
 3-21G
 ****


