%nproc=1
%NoSave
%Mem=1900MB
#P OB98/GEN NMR

erre ene a

0 1
  C      437.409    -672.219    -754.072
  O      437.377    -671.593    -752.788
  P      437.553    -669.998    -752.696
  C      435.508    -669.665    -751.149
  O      436.911    -669.491    -751.313
  C      435.093    -669.418    -749.687
  O      435.720    -670.389    -748.803
  C      435.501    -668.023    -749.193
  O      434.539    -667.527    -748.244
  C      436.791    -668.301    -748.427
  O      437.087    -667.265    -747.488
  C      436.453    -669.665    -747.807
  N      439.347    -671.199    -743.845
  C      438.174    -670.527    -743.898
  N      437.451    -670.169    -744.991
  C      438.049    -670.594    -746.115
  C      439.244    -671.291    -746.218
  C      439.915    -671.595    -745.013
  N      441.114    -672.251    -744.956
  N      439.552    -671.564    -747.536
  C      438.577    -670.975    -748.223
  N      437.639    -670.408    -747.411
  O      437.123    -669.236    -753.909
  O      439.130    -669.842    -752.427
  H      437.993    -667.430    -747.173
  H      439.459    -669.087    -752.972
  H      437.764    -670.219    -742.943
  H      438.525    -670.936    -749.309
  H      435.816    -669.554    -746.919
  H      437.629    -668.389    -749.135
  H      435.641    -667.282    -749.987
  H      434.002    -669.560    -749.604
  H      435.228    -670.688    -751.437
  H      441.585    -672.323    -744.071
  H      441.627    -672.426    -745.824
  H      434.980    -668.994    -751.836
  P      433.274    -666.743    -748.878
  C      431.597    -667.703    -747.104
  O      432.232    -666.584    -747.670
  O      432.748    -667.385    -750.131
  O      433.869    -665.270    -749.109
  H      434.321    -664.891    -748.324
  H      431.028    -667.400    -746.219
  H      432.338    -668.450    -746.792
  H      430.907    -668.164    -747.824
  H      437.278    -673.275    -753.957
  H      438.351    -672.025    -754.540
  H      436.621    -671.826    -754.680

 3  4  5  6  7  8  9  10  11  12  22  25  29  30  31  32 0
 6-311+G(2d,p)
 ****
 33  36  37 0
 6-311+G(2d,p)
 ****
 1  2  13  14  15  16  17  18  19  20  21  23  24  26 0
 3-21G
 ****
 27  28  34  35  38  39  40  41  42  43  44  45  46  47  48 0
 3-21G
 ****


