%nproc=1
%NoSave
%Mem=1900MB
#P OB98/GEN NMR

erre ene a

0 1
  C      376.961     -17.396     -68.371
  O      377.833     -17.893     -67.377
  H      376.979     -16.301     -68.377
  H      377.297     -17.756     -69.348
  H      375.942     -17.751     -68.193
  P      377.534     -17.446     -65.864
  C      375.703     -18.159     -64.158
  O      376.092     -18.066     -65.520
  C      374.185     -18.280     -64.073
  O      373.561     -17.185     -64.782
  C      373.634     -19.553     -64.707
  O      373.715     -20.673     -63.841
  C      372.191     -19.146     -64.949
  O      371.459     -19.194     -63.711
  C      372.354     -17.690     -65.416
  N      369.820     -16.978     -69.808
  C      369.407     -17.006     -68.522
  N      370.147     -17.180     -67.408
  C      371.443     -17.326     -67.718
  C      372.016     -17.313     -68.981
  C      371.139     -17.133     -70.062
  N      371.552     -17.134     -71.378
  N      373.380     -17.515     -68.900
  C      373.625     -17.630     -67.610
  N      372.484     -17.554     -66.856
  O      377.233     -15.879     -65.982
  O      378.597     -17.765     -64.867
  H      371.583     -20.088     -63.341
  H      377.257     -15.460     -65.101
  H      368.339     -16.875     -68.367
  H      374.605     -17.778     -67.174
  H      371.520     -17.053     -65.102
  H      371.679     -19.806     -65.652
  H      374.113     -19.760     -65.672
  H      373.893     -18.207     -63.019
  H      376.030     -17.257     -63.630
  H      370.834     -17.149     -72.086
  H      372.505     -17.397     -71.586
  H      376.178     -19.035     -63.704
  P      373.778     -22.129     -64.517
  C      375.471     -23.271     -66.119
  O      374.903     -22.051     -65.659
  O      372.411     -22.195     -65.348
  O      373.907     -23.258     -63.552
  H      372.072     -23.109     -65.387
  H      376.200     -23.063     -66.874
  H      374.701     -23.891     -66.528
  H      375.939     -23.777     -65.301

 6  7  8  9  10  11  12  13  14  15  25  28  32  33  34  35 0
 6-311+G(2d,p)
 ****
 36  39  40 0
 6-311+G(2d,p)
 ****
 1  2  3  4  5  16  17  18  19  20  21  22  23  24 0
 3-21G
 ****
 26  27  29  30  31  37  38  41  42  43  44  45  46  47 0
 3-21G
 ****
 48 0
 3-21G
 ****


