%nproc=1
%NoSave
%Mem=1900MB
#P OB98/GEN NMR

erre ene a

0 1
  C      496.484     175.164     434.733
  O      497.776     175.695     434.947
  H      495.771     175.990     434.663
  H      496.192     174.520     435.570
  H      496.455     174.598     433.797
  P      499.004     174.679     435.130
  C      498.698     174.405     437.681
  O      498.646     173.773     436.405
  C      499.328     173.466     438.712
  O      499.417     174.114     439.993
  C      498.546     172.171     438.941
  O      498.844     171.220     437.925
  C      499.086     171.757     440.299
  O      500.402     171.188     440.146
  C      499.183     173.112     441.029
  N      497.428     174.768     445.496
  C      498.695     174.354     445.137
  N      499.625     174.354     446.123
  N      499.024     173.966     443.940
  C      497.981     173.948     443.070
  C      496.670     174.316     443.311
  C      496.339     174.811     444.628
  O      495.229     175.207     444.982
  N      495.880     174.073     442.219
  C      496.706     173.612     441.304
  N      497.998     173.506     441.774
  O      500.371     175.295     435.188
  O      498.857     173.661     433.907
  H      500.683     170.876     441.025
  H      499.374     173.956     433.133
  H      497.229     175.051     446.434
  H      496.438     173.350     440.294
  H      500.024     173.153     441.716
  H      498.461     171.006     440.792
  H      499.399     174.503     447.096
  H      497.469     172.351     439.022
  H      500.546     173.997     445.893
  H      500.356     173.250     438.382
  H      497.671     174.648     437.967
  H      499.276     175.333     437.627
  P      497.897     169.947     437.662
  C      499.298     168.486     439.280
  O      498.028     169.044     438.981
  O      498.157     169.234     436.378
  O      496.414     170.525     437.804
  H      496.073     170.928     436.956
  H      499.233     167.913     440.181
  H      500.012     169.273     439.408
  H      499.607     167.852     438.476

 6  7  8  9  10  11  12  13  14  15  26  29  33  34 0
 6-311+G(2d,p)
 ****
 36  38  39  40  41 0
 6-311+G(2d,p)
 ****
 1  2  3  4  5  16  17  18  19  20  21  22  23  24  25 0
 3-21G
 ****
 27  28  30  31  32  35  37  42  43  44  45  46  47 0
 3-21G
 ****
 48  49 0
 3-21G
 ****


