%nproc=1
%NoSave
%Mem=1900MB
#P OB98/GEN NMR

erre ene a

0 1
  C     -454.357    -747.492     825.536
  O     -453.362    -747.056     826.445
  P     -452.750    -745.587     826.215
  C     -454.783    -744.091     826.905
  O     -453.509    -744.615     827.241
  C     -455.386    -743.382     828.118
  O     -455.675    -744.333     829.162
  C     -454.477    -742.323     828.737
  O     -454.571    -741.115     828.016
  C     -455.037    -742.240     830.155
  O     -456.215    -741.408     830.194
  C     -455.394    -743.706     830.442
  N     -453.298    -744.650     834.954
  C     -454.248    -743.715     834.586
  N     -454.746    -742.944     835.586
  N     -454.684    -743.543     833.365
  C     -454.088    -744.373     832.473
  C     -453.121    -745.328     832.700
  C     -452.693    -745.537     834.069
  O     -451.932    -746.412     834.451
  N     -452.750    -745.951     831.549
  C     -453.506    -745.396     830.625
  N     -454.346    -744.445     831.133
  O     -453.335    -745.172     824.781
  O     -451.259    -745.506     826.272
  H     -456.063    -740.615     829.660
  H     -452.675    -745.322     824.080
  H     -453.020    -744.749     835.912
  H     -453.490    -745.666     829.571
  H     -456.295    -743.799     831.062
  H     -454.321    -741.801     830.858
  H     -454.449    -743.003     836.550
  H     -453.441    -742.681     828.768
  H     -455.437    -742.246     835.342
  H     -456.339    -742.931     827.805
  H     -455.443    -744.908     826.605
  H     -454.672    -743.398     826.062
  P     -453.216    -740.286     827.784
  C     -452.197    -741.363     825.646
  O     -452.918    -740.281     826.213
  O     -452.083    -741.257     828.383
  O     -453.178    -738.952     828.445
  H     -451.384    -740.723     828.817
  H     -452.517    -741.501     824.614
  H     -452.366    -742.294     826.201
  H     -451.128    -741.137     825.656
  H     -454.675    -748.478     825.802
  H     -453.955    -747.502     824.545
  H     -455.193    -746.825     825.575

 3  4  5  6  7  8  9  10  11  12  23  26  30  31 0
 6-311+G(2d,p)
 ****
 33  35  36  37  38 0
 6-311+G(2d,p)
 ****
 1  2  13  14  15  16  17  18  19  20  21  22  24  25 0
 3-21G
 ****
 27  28  29  32  34  39  40  41  42  43  44  45  46  47  48  49 0
 3-21G
 ****


