%nproc=1
%NoSave
%Mem=1900MB
#P OB98/GEN NMR

erre ene a

0 1
  C      -51.549     -63.609      -5.497
  O      -51.694     -63.180      -6.842
  P      -51.675     -61.620      -7.209
  C      -50.153     -61.603      -9.282
  O      -51.491     -61.527      -8.802
  C      -50.131     -61.667     -10.808
  O      -50.501     -63.003     -11.226
  C      -51.101     -60.694     -11.469
  O      -50.513     -60.203     -12.676
  C      -52.300     -61.553     -11.839
  O      -53.018     -60.991     -12.950
  C      -51.630     -62.902     -12.115
  N      -53.708     -67.164     -14.085
  C      -52.820     -66.283     -14.592
  N      -52.331     -65.160     -14.023
  C      -52.811     -65.013     -12.777
  C      -53.719     -65.833     -12.124
  C      -54.179     -66.955     -12.832
  N      -55.076     -67.862     -12.308
  N      -54.000     -65.342     -10.863
  C      -53.260     -64.261     -10.751
  N      -52.516     -64.026     -11.877
  O      -50.710     -60.799      -6.424
  O      -53.182     -61.136      -6.991
  H      -53.471     -60.185     -12.623
  H      -53.198     -60.239      -6.606
  H      -52.455     -66.507     -15.591
  H      -53.233     -63.612      -9.889
  H      -51.257     -62.965     -13.146
  H      -52.987     -61.610     -10.988
  H      -51.376     -59.857     -10.818
  H      -49.104     -61.486     -11.151
  H      -49.694     -62.511      -8.877
  H      -55.254     -68.699     -12.840
  H      -55.291     -67.803     -11.322
  H      -49.587     -60.738      -8.921
  P      -50.752     -58.639     -12.990
  C      -48.572     -58.895     -14.389
  O      -49.866     -58.346     -14.292
  O      -50.507     -57.785     -11.789
  O      -52.269     -58.655     -13.505
  H      -52.517     -59.533     -13.870
  H      -48.115     -58.551     -15.324
  H      -48.624     -59.986     -14.409
  H      -47.950     -58.565     -13.551
  H      -51.588     -64.678      -5.457
  H      -52.342     -63.201      -4.905
  H      -50.608     -63.272      -5.114

 3  4  5  6  7  8  9  10  11  12  22  25  29  30  31  32 0
 6-311+G(2d,p)
 ****
 33  36  37 0
 6-311+G(2d,p)
 ****
 1  2  13  14  15  16  17  18  19  20  21  23  24  26 0
 3-21G
 ****
 27  28  34  35  38  39  40  41  42  43  44  45  46  47  48 0
 3-21G
 ****


