%nproc=1
%NoSave
%Mem=1900MB
#P OB98/GEN NMR

erre ene a

0 1
  C     -922.669     241.070    -651.343
  O     -923.558     240.515    -652.293
  H     -921.844     241.554    -651.885
  H     -922.247     240.278    -650.713
  H     -923.173     241.818    -650.729
  P     -924.952     239.902    -651.774
  C     -926.541     241.309    -653.252
  O     -925.990     240.019    -652.993
  C     -926.735     241.524    -654.759
  O     -925.420     241.772    -655.363
  C     -927.346     240.311    -655.507
  O     -928.084     240.842    -656.618
  C     -926.096     239.588    -655.969
  O     -926.364     238.574    -656.902
  C     -925.258     240.797    -656.423
  N     -923.849     240.518    -656.663
  C     -923.366     240.664    -657.969
  O     -924.061     241.015    -658.928
  N     -922.030     240.385    -658.146
  C     -921.154     239.995    -657.180
  O     -919.971     239.794    -657.387
  C     -921.721     239.857    -655.820
  C     -923.012     240.135    -655.632
  O     -925.446     240.427    -650.466
  O     -924.664     238.325    -651.711
  H     -924.506     238.064    -650.784
  H     -925.519     238.165    -657.183
  H     -921.681     240.498    -659.082
  H     -921.049     239.533    -655.043
  H     -923.455     240.036    -654.648
  H     -925.703     241.219    -657.326
  H     -925.620     239.082    -655.112
  H     -928.016     239.724    -654.872
  H     -927.324     242.435    -654.914
  H     -925.859     242.067    -652.854
  H     -927.513     241.399    -652.738
  P     -929.020     239.938    -657.575
  C     -931.195     241.324    -657.345
  O     -930.153     240.893    -658.212
  O     -929.569     238.715    -656.904
  O     -928.088     239.538    -658.812
  H     -928.404     238.708    -659.202
  H     -931.875     241.947    -657.887
  H     -930.776     241.878    -656.531
  H     -931.718     240.472    -656.964

 6  7  8  9  10  11  12  13  14  15  16  27  31  32  33  34  35 0
 6-311+G(2d,p)
 ****
 36  37 0
 6-311+G(2d,p)
 ****
 1  2  3  4  5  17  18  19  20  21  22  23  24  25 0
 3-21G
 ****
 26  28  29  30  38  39  40  41  42  43  44  45 0
 3-21G
 ****


