%nproc=1
%NoSave
%Mem=1900MB
#P OB98/GEN NMR

erre ene a

0 1
  C      602.000    -143.338     128.139
  O      602.463    -142.119     127.544
  P      602.248    -140.747     128.348
  C      604.461    -140.610     129.676
  O      603.682    -140.077     128.603
  C      605.934    -140.158     129.562
  O      606.561    -140.857     128.457
  C      606.117    -138.664     129.261
  O      606.203    -137.756     130.362
  C      607.490    -138.664     128.604
  O      608.523    -138.661     129.607
  C      607.532    -139.981     127.835
  N      609.240    -138.151     123.359
  C      609.777    -138.161     124.604
  N      609.256    -138.671     125.734
  C      608.055    -139.222     125.518
  C      607.378    -139.304     124.299
  C      608.016    -138.719     123.186
  N      607.471    -138.703     121.920
  N      606.158    -139.930     124.455
  C      606.100    -140.231     125.742
  N      607.223    -139.838     126.421
  O      601.346    -140.826     129.545
  O      601.619    -139.780     127.228
  H      608.496    -137.787     130.030
  H      600.941    -139.212     127.645
  H      610.753    -137.695     124.689
  H      605.267    -140.723     126.217
  H      608.508    -140.489     127.900
  H      607.666    -137.769     127.984
  H      605.361    -138.306     128.548
  H      606.461    -140.423     130.481
  H      604.414    -141.708     129.645
  H      607.962    -138.237     121.194
  H      606.528    -139.073     121.780
  H      603.994    -140.295     130.608
  P      605.202    -136.501     130.490
  C      604.607    -136.265     133.024
  O      605.447    -135.900     131.960
  O      603.764    -136.798     130.178
  O      605.883    -135.424     129.532
  H      606.733    -135.072     129.858
  H      605.063    -135.927     133.962
  H      604.478    -137.349     133.084
  H      603.633    -135.779     132.921
  H      602.215    -144.158     127.486
  H      600.944    -143.278     128.300
  H      602.496    -143.489     129.075

 3  4  5  6  7  8  9  10  11  12  22  25  29  30  31  32 0
 6-311+G(2d,p)
 ****
 33  36  37 0
 6-311+G(2d,p)
 ****
 1  2  13  14  15  16  17  18  19  20  21  23  24  26 0
 3-21G
 ****
 27  28  34  35  38  39  40  41  42  43  44  45  46  47  48 0
 3-21G
 ****


