%nproc=1
%NoSave
%Mem=1900MB
#P OB98/GEN NMR

erre ene a

0 1
  C      595.593     280.495     538.283
  O      596.858     281.149     538.244
  P      597.002     282.716     538.580
  C      596.334     283.400     536.171
  O      596.022     283.460     537.552
  C      595.070     283.625     535.337
  O      595.481     283.802     533.949
  C      594.067     282.464     535.378
  O      592.760     283.042     535.304
  C      594.386     281.683     534.119
  O      593.301     280.874     533.686
  C      594.755     282.823     533.163
  N      595.564     282.369     532.026
  C      595.453     283.087     530.839
  O      594.708     284.058     530.737
  N      596.230     282.699     529.760
  C      596.958     281.625     529.843
  N      597.737     281.315     528.776
  C      597.007     280.779     531.054
  C      596.305     281.221     532.095
  O      598.408     283.218     538.593
  O      596.228     282.892     539.965
  H      592.488     281.416     533.715
  H      596.801     282.691     540.761
  H      597.609     279.881     531.068
  H      596.307     280.670     533.035
  H      593.839     283.322     532.793
  H      595.255     281.028     534.301
  H      594.153     281.875     536.294
  H      594.601     284.556     535.656
  H      597.817     282.011     528.053
  H      596.739     282.409     535.949
  H      598.559     280.718     528.885
  H      597.103     284.152     535.943
  P      591.623     282.493     536.315
  C      590.042     281.759     534.388
  O      590.772     281.375     535.535
  O      590.607     283.734     536.349
  O      592.072     282.163     537.696
  H      590.113     283.706     537.185
  H      589.530     280.871     533.990
  H      590.715     282.144     533.605
  H      589.283     282.511     534.639
  H      595.717     279.463     538.029
  H      594.931     280.958     537.582
  H      595.181     280.573     539.268

 3  4  5  6  7  8  9  10  11  12  13  23  27  28  29  30  32 0
 6-311+G(2d,p)
 ****
 34  35 0
 6-311+G(2d,p)
 ****
 1  2  14  15  16  17  18  19  20  21  22  24  25  26 0
 3-21G
 ****
 31  33  36  37  38  39  40  41  42  43  44  45  46 0
 3-21G
 ****


