%nproc=1
%NoSave
%Mem=1900MB
#P OB98/GEN NMR

erre ene a

0 1
  C      420.095    -142.233     238.178
  O      420.096    -142.064     239.584
  H      419.788    -141.294     237.712
  H      419.389    -143.020     237.897
  H      421.097    -142.490     237.828
  P      420.539    -143.334     240.456
  C      420.455    -141.610     242.409
  O      420.245    -142.946     241.984
  C      419.492    -141.253     243.548
  O      418.172    -140.997     242.979
  C      419.319    -142.370     244.590
  O      419.002    -141.755     245.848
  C      418.094    -143.100     244.058
  O      417.559    -143.968     245.031
  C      417.254    -141.901     243.635
  N      412.370    -143.397     243.355
  C      413.152    -143.077     244.408
  N      414.440    -142.674     244.402
  C      414.908    -142.596     243.145
  C      414.227    -142.882     241.974
  C      412.891    -143.306     242.109
  N      412.097    -143.642     241.043
  N      415.044    -142.688     240.871
  C      416.197    -142.291     241.374
  N      416.165    -142.227     242.742
  O      422.136    -143.312     240.359
  O      419.972    -144.643     240.017
  H      418.264    -144.521     245.430
  H      422.433    -143.901     239.640
  H      412.684    -143.155     245.384
  H      417.085    -142.043     240.799
  H      416.827    -141.374     244.495
  H      418.353    -143.718     243.195
  H      420.203    -143.001     244.703
  H      419.821    -140.316     244.014
  H      420.286    -140.945     241.557
  H      421.489    -141.496     242.758
  H      411.158    -143.954     241.226
  H      412.482    -143.596     240.107
  P      420.199    -141.305     246.823
  C      418.511    -140.511     248.656
  O      419.655    -141.283     248.330
  O      420.322    -139.741     246.494
  O      421.505    -141.997     246.605
  H      421.239    -139.444     246.656
  H      418.295    -140.616     249.699
  H      417.675    -140.853     248.083
  H      418.700    -139.482     248.433

 6  7  8  9  10  11  12  13  14  15  25  28  32  33  34  35 0
 6-311+G(2d,p)
 ****
 36  37  40 0
 6-311+G(2d,p)
 ****
 1  2  3  4  5  16  17  18  19  20  21  22  23  24 0
 3-21G
 ****
 26  27  29  30  31  38  39 41  42  43  44  45  46  47  48 0
 3-21G
 ****


