%nproc=1
%NoSave
%Mem=1900MB
#P OB98/GEN NMR

erre ene a

0 1
  C      -26.592     -35.559      -2.315
  O      -27.044     -36.558      -3.212
  P      -25.954     -37.415      -4.018
  C      -26.258     -35.908      -6.148
  O      -25.389     -36.461      -5.177
  C      -25.454     -35.163      -7.219
  O      -24.627     -34.156      -6.571
  C      -24.523     -36.056      -8.050
  O      -24.501     -35.523      -9.381
  C      -23.176     -35.859      -7.374
  O      -22.085     -36.176      -8.225
  C      -23.265     -34.379      -6.986
  N      -22.336     -34.000      -5.921
  C      -21.378     -33.032      -6.209
  O      -21.255     -32.494      -7.308
  N      -20.528     -32.713      -5.180
  C      -20.499     -33.299      -3.948
  O      -19.703     -32.987      -3.070
  C      -21.502     -34.349      -3.719
  C      -22.364     -34.638      -4.695
  O      -26.889     -38.457      -4.790
  O      -24.910     -38.028      -3.147
  H      -27.737     -38.072      -5.070
  H      -21.265     -35.885      -7.786
  H      -19.849     -31.986      -5.353
  H      -21.501     -34.849      -2.758
  H      -23.112     -35.409      -4.551
  H      -23.090     -33.750      -7.867
  H      -23.116     -36.503      -6.489
  H      -24.851     -37.098      -8.072
  H      -26.159     -34.633      -7.871
  H      -26.944     -35.207      -5.666
  H      -26.856     -36.709      -6.597
  P      -24.637     -36.551     -10.613
  C      -22.036     -36.837     -10.521
  O      -23.304     -37.439     -10.643
  O      -24.423     -35.545     -11.845
  O      -25.936     -37.283     -10.681
  H      -23.651     -34.968     -11.732
  H      -21.309     -37.602     -10.230
  H      -22.037     -36.052      -9.761
  H      -21.735     -36.415     -11.484
  H      -27.434     -35.081      -1.860
  H      -26.016     -34.833      -2.850
  H      -25.984     -36.008      -1.558

 3  4  5  6  7  8  9  10  11  12  13  24  28  29  30  31  32 0
 6-311+G(2d,p)
 ****
 33  34 0
 6-311+G(2d,p)
 ****
 1  2  14  15  16  17  18  19  20  21  22  23  25  26  27 0
 3-21G
 ****
 35  36  37  38  39  40  41  42  43  44  45 0
 3-21G
 ****


