%nproc=1
%NoSave
%Mem=1900MB
#P OB98/GEN NMR

erre ene a

0 1
  C      261.478    -236.991      31.773
  O      260.827    -237.485      32.950
  P      259.502    -236.816      33.558
  C      257.967    -235.927      31.685
  O      258.286    -237.024      32.537
  C      256.699    -236.196      30.868
  O      256.932    -237.228      29.893
  C      255.504    -236.672      31.684
  O      254.908    -235.601      32.393
  C      254.630    -237.280      30.591
  O      253.867    -236.267      29.915
  C      255.680    -237.897      29.647
  N      255.804    -239.338      29.814
  C      255.030    -240.134      28.964
  O      254.249    -239.617      28.166
  N      255.144    -241.501      29.059
  C      255.903    -242.022      29.970
  N      255.982    -243.380      30.012
  C      256.665    -241.220      30.946
  C      256.571    -239.899      30.808
  O      259.686    -235.401      34.005
  O      259.103    -237.743      34.803
  H      253.234    -236.737      29.338
  H      258.665    -237.196      35.481
  H      257.265    -241.693      31.707
  H      257.106    -239.234      31.477
  H      255.426    -237.686      28.602
  H      253.916    -238.011      30.983
  H      255.819    -237.459      32.378
  H      256.449    -235.271      30.326
  H      255.452    -243.901      29.326
  H      258.810    -235.768      31.002
  H      256.544    -243.886      30.680
  H      257.841    -235.030      32.299
  P      255.426    -235.235      33.864
  C      257.043    -233.547      34.924
  O      256.449    -234.011      33.725
  O      255.914    -236.384      34.680
  O      254.150    -234.548      34.552
  H      254.168    -234.738      35.509
  H      257.973    -233.027      34.677
  H      257.267    -234.378      35.600
  H      256.364    -232.847      35.417
  H      262.336    -237.594      31.560
  H      261.784    -235.978      31.933
  H      260.800    -237.032      30.946

 3  4  5  6  7  8  9  10  11  12  13  23  27  28  29  30  32 0
 6-311+G(2d,p)
 ****
 34  35 0
 6-311+G(2d,p)
 ****
 1  2  14  15  16  17  18  19  20  21  22  24  25  26 0
 3-21G
 ****
 31  33  36  37  38  39  40  41  42  43  44  45  46 0
 3-21G
 ****


