%nproc=1
%NoSave
%Mem=1900MB
#P OB98/GEN NMR

erre ene a

0 1
  C       78.752      41.395      75.452
  O       77.803      42.438      75.346
  H       79.624      41.649      74.843
  H       78.327      40.457      75.084
  H       79.067      41.276      76.491
  P       76.400      42.201      76.090
  C       75.215      41.416      73.901
  O       75.687      41.072      75.195
  C       74.056      40.502      73.517
  O       74.483      39.123      73.488
  C       72.883      40.544      74.488
  O       72.055      41.682      74.307
  C       72.168      39.260      74.108
  O       71.454      39.452      72.874
  C       73.364      38.300      73.914
  N       73.707      37.556      75.126
  C       73.051      36.334      75.320
  O       72.225      35.931      74.503
  N       73.324      35.609      76.456
  C       74.182      36.057      77.318
  N       74.403      35.306      78.430
  C       74.907      37.329      77.145
  C       74.624      38.018      76.043
  O       75.556      43.513      75.731
  O       76.474      41.897      77.548
  H       72.122      39.556      72.173
  H       74.625      43.408      76.042
  H       75.606      37.667      77.898
  H       75.117      38.965      75.851
  H       73.163      37.582      73.109
  H       71.441      38.937      74.855
  H       73.216      40.465      75.529
  H       73.741      40.768      72.499
  H       73.846      34.470      78.551
  H       76.041      41.300      73.191
  H       74.910      35.656      79.233
  H       74.877      42.456      73.889
  P       71.457      42.384      75.622
  C       69.042      41.704      74.951
  O       70.059      41.665      75.942
  O       71.014      43.825      75.090
  O       72.406      42.478      76.775
  H       71.201      44.518      75.752
  H       68.176      41.186      75.308
  H       69.396      41.234      74.058
  H       68.787      42.722      74.741

 6  7  8  9  10  11  12  13  14  15  16  26  30  31  32  33  35 0
 6-311+G(2d,p)
 ****
 37  38 0
 6-311+G(2d,p)
 ****
 1  2  3  4  5  17  18  19  20  21  22  23  24  25 0
 3-21G
 ****
 27  28  29  34  36  39  40  41  42  43  44  45  46 0
 3-21G
 ****


