%nproc=1
%NoSave
%Mem=1900MB
#P OB98/GEN NMR

erre ene a

0 1
  C      419.496    -617.651     -23.841
  O      420.154    -618.827     -24.272
  H      419.101    -617.826     -22.835
  H      418.663    -617.423     -24.506
  H      420.195    -616.811     -23.804
  P      420.914    -618.816     -25.682
  C      423.252    -619.642     -26.379
  O      422.107    -619.890     -25.579
  C      424.323    -620.693     -26.127
  O      424.815    -620.536     -24.768
  C      423.830    -622.132     -26.287
  O      424.878    -622.907     -26.876
  C      423.604    -622.591     -24.854
  O      423.724    -624.001     -24.711
  C      424.682    -621.807     -24.099
  N      425.731    -623.278     -19.388
  C      426.342    -623.617     -20.579
  N      427.376    -624.486     -20.522
  N      425.978    -623.134     -21.746
  C      424.940    -622.255     -21.653
  C      424.255    -621.851     -20.532
  C      424.663    -622.403     -19.261
  O      424.157    -622.156     -18.172
  N      423.244    -620.973     -20.862
  C      423.327    -620.853     -22.175
  N      424.334    -621.621     -22.703
  O      421.343    -617.465     -26.173
  O      419.883    -619.509     -26.690
  H      423.156    -624.411     -25.398
  H      419.407    -618.836     -27.216
  H      426.056    -623.692     -18.524
  H      422.681    -620.235     -22.787
  H      425.659    -622.311     -24.120
  H      422.600    -622.293     -24.529
  H      427.720    -624.885     -19.661
  H      422.919    -622.207     -26.893
  H      427.853    -624.726     -21.384
  H      425.173    -620.490     -26.789
  H      423.638    -618.649     -26.131
  H      422.957    -619.651     -27.439
  P      424.971    -622.983     -28.477
  C      426.625    -622.178     -30.283
  O      426.450    -622.540     -28.914
  O      423.860    -622.318     -29.220
  O      424.995    -624.562     -28.759
  H      424.575    -624.731     -29.636
  H      427.645    -621.904     -30.452
  H      425.989    -621.350     -30.517
  H      426.371    -623.009     -30.907

 6  7  8  9  10  11  12  13  14  15  26  29  33  34 0
 6-311+G(2d,p)
 ****
 36  38  39  40  41 0
 6-311+G(2d,p)
 ****
 1  2  3  4  5  16  17  18  19  20  21  22  23  24  25 0
 3-21G
 ****
 27  28  30  31  32  35  37  42  43  44  45  46  47 0
 3-21G
 ****
 48  49 0
 3-21G
 ****


