%nproc=1
%NoSave
%Mem=1900MB
#P OB98/GEN NMR

erre ene a

0 1
  C      217.628     221.787     385.878
  O      217.977     220.465     386.229
  P      219.173     219.731     385.459
  C      219.775     219.109     383.041
  O      218.837     219.748     383.893
  C      219.082     218.558     381.794
  O      218.226     219.571     381.212
  C      220.041     218.151     380.680
  O      220.658     216.910     380.966
  C      219.113     218.133     379.480
  O      218.363     216.901     379.429
  C      218.157     219.313     379.794
  N      217.550     221.826     375.386
  C      217.205     220.564     375.767
  N      217.446     219.962     376.949
  C      218.125     220.775     377.776
  C      218.560     222.072     377.515
  C      218.230     222.605     376.263
  N      218.502     223.903     375.889
  N      219.248     222.574     378.610
  C      219.231     221.593     379.504
  N      218.502     220.521     379.061
  O      219.569     218.395     386.011
  O      220.390     220.772     385.575
  H      217.595     217.061     378.840
  H      221.141     220.348     386.053
  H      216.679     219.973     375.027
  H      219.705     221.634     380.474
  H      217.116     219.065     379.566
  H      219.636     218.233     378.525
  H      220.801     218.930     380.535
  H      218.458     217.705     382.097
  H      220.247     218.284     383.591
  H      218.089     224.220     375.024
  H      218.729     224.583     376.617
  H      220.558     219.837     382.760
  P      222.155     216.620     380.478
  C      223.304     216.012     378.268
  O      222.077     216.304     378.908
  O      222.933     215.648     381.303
  O      222.843     218.078     380.507
  H      223.788     217.984     380.732
  H      223.845     216.947     378.089
  H      223.104     215.514     377.312
  H      223.925     215.345     378.877
  H      216.814     222.116     386.490
  H      217.335     221.817     384.849
  H      218.470     222.430     386.028

 3  4  5  6  7  8  9  10  11  12  22  25  29  30  31  32 0
 6-311+G(2d,p)
 ****
 33  36  37 0
 6-311+G(2d,p)
 ****
 1  2  13  14  15  16  17  18  19  20  21  23  24  26 0
 3-21G
 ****
 27  28  34  35  38  39  40  41  42  43  44  45  46  47  48 0
 3-21G
 ****


