%nproc=1
%NoSave
%Mem=1900MB
#P OB98/GEN NMR

erre ene a

0 1
  C      387.987      22.210    -431.061
  O      387.958      23.572    -430.666
  P      387.344      24.007    -429.249
  C      385.021      24.739    -428.487
  O      385.749      23.891    -429.356
  C      383.544      24.824    -428.895
  O      383.442      25.577    -430.144
  C      382.866      23.463    -429.131
  O      381.502      23.612    -428.726
  C      382.936      23.311    -430.642
  O      381.977      22.381    -431.151
  C      382.709      24.754    -431.073
  N      381.283      25.394    -435.946
  C      380.577      25.093    -434.837
  N      381.035      24.909    -433.574
  C      382.365      25.077    -433.528
  C      383.222      25.356    -434.576
  C      382.629      25.537    -435.846
  N      383.326      25.866    -436.983
  N      384.536      25.386    -434.135
  C      384.461      25.145    -432.848
  N      383.167      25.012    -432.419
  O      387.843      25.304    -428.716
  O      387.733      22.793    -428.278
  H      381.678      22.698    -432.027
  H      388.458      23.062    -427.677
  H      379.508      24.991    -434.973
  H      385.312      25.041    -432.175
  H      381.648      25.040    -431.016
  H      383.929      22.963    -430.935
  H      383.342      22.636    -428.604
  H      383.009      25.396    -428.134
  H      385.467      25.738    -428.540
  H      382.792      26.096    -437.796
  H      384.275      26.234    -436.880
  H      385.103      24.376    -427.458
  P      380.549      22.321    -428.637
  C      378.882      21.159    -430.189
  O      379.836      22.194    -430.060
  O      379.635      22.278    -427.464
  O      381.583      21.098    -428.636
  H      381.126      20.293    -428.312
  H      379.387      20.211    -430.360
  H      378.221      21.377    -431.041
  H      378.262      21.071    -429.285
  H      388.432      22.129    -432.031
  H      386.989      21.827    -431.094
  H      388.562      21.646    -430.356

 3  4  5  6  7  8  9  10  11  12  22  25  29  30  31  32 0
 6-311+G(2d,p)
 ****
 33  36  37 0
 6-311+G(2d,p)
 ****
 1  2  13  14  15  16  17  18  19  20  21  23  24  26 0
 3-21G
 ****
 27  28  34  35  38  39  40  41  42  43  44  45  46  47  48 0
 3-21G
 ****


