%nproc=1
%NoSave
%Mem=1900MB
#P OB98/GEN NMR

erre ene a

0 1
  C     -138.843     -31.686    -264.482
  O     -138.137     -30.541    -264.051
  H     -139.644     -31.368    -265.158
  H     -139.291     -32.199    -263.628
  H     -138.183     -32.370    -265.025
  P     -136.804     -30.740    -263.184
  C     -137.941     -29.776    -261.080
  O     -137.260     -30.886    -261.652
  C     -139.098     -30.263    -260.212
  O     -140.090     -30.917    -261.039
  C     -138.692     -31.300    -259.168
  O     -138.018     -30.702    -258.080
  C     -140.042     -31.915    -258.836
  O     -140.759     -31.110    -257.889
  C     -140.752     -31.901    -260.208
  N     -140.739     -33.218    -260.847
  C     -141.881     -33.996    -260.677
  O     -142.872     -33.619    -260.048
  N     -141.834     -35.252    -261.215
  C     -140.726     -35.843    -261.764
  O     -140.654     -37.043    -262.001
  C     -139.568     -34.959    -261.971
  C     -139.622     -33.710    -261.498
  O     -135.717     -29.745    -263.430
  O     -136.327     -32.225    -263.560
  H     -135.590     -32.176    -264.195
  H     -141.674     -31.456    -257.882
  H     -142.643     -35.838    -261.062
  H     -138.698     -35.367    -262.466
  H     -138.768     -33.046    -261.610
  H     -141.794     -31.577    -260.098
  H     -139.935     -32.913    -258.409
  H     -138.058     -32.066    -259.634
  H     -139.567     -29.394    -259.734
  H     -138.331     -29.145    -261.886
  H     -137.229     -29.193    -260.483
  P     -136.531     -31.172    -257.696
  C     -137.344     -32.270    -255.516
  O     -136.639     -32.455    -256.742
  O     -135.637     -30.089    -257.188
  O     -135.957     -31.791    -259.059
  H     -135.081     -31.397    -259.241
  H     -137.351     -33.188    -254.967
  H     -138.350     -31.972    -255.725
  H     -136.860     -31.511    -254.937

 6  7  8  9  10  11  12  13  14  15  16  27  31  32  33  34  35 0
 6-311+G(2d,p)
 ****
 36  37 0
 6-311+G(2d,p)
 ****
 1  2  3  4  5  17  18  19  20  21  22  23  24  25 0
 3-21G
 ****
 26  28  29  30  38  39  40  41  42  43  44  45 0
 3-21G
 ****


