%nproc=1
%NoSave
%Mem=1900MB
#P OB98/GEN NMR

erre ene a

0 1
  C      492.084     281.501     183.937
  O      493.002     281.341     182.868
  H      492.598     281.283     184.875
  H      491.248     280.803     183.823
  H      491.712     282.528     183.965
  P      492.403     281.517     181.387
  C      492.641     279.001     180.742
  O      493.102     280.333     180.561
  C      492.698     278.251     179.414
  O      491.928     278.947     178.411
  C      494.107     278.115     178.830
  O      494.865     277.090     179.450
  C      493.763     277.784     177.389
  O      493.352     276.410     177.292
  C      492.588     278.746     177.123
  N      493.007     280.024     176.556
  C      492.843     280.195     175.180
  O      492.381     279.278     174.488
  N      493.238     281.374     174.594
  C      493.746     282.318     175.326
  N      494.136     283.462     174.705
  C      493.919     282.207     176.791
  C      493.535     281.041     177.329
  O      493.155     282.821     180.826
  O      490.915     281.569     181.285
  H      492.988     276.289     176.391
  H      492.945     282.939     179.870
  H      494.355     283.001     177.358
  H      493.637     280.880     178.401
  H      491.855     278.288     176.449
  H      494.621     277.912     176.714
  H      494.645     279.073     178.853
  H      492.231     277.263     179.562
  H      494.057     283.499     173.695
  H      491.613     279.037     181.108
  H      494.695     284.171     175.159
  H      493.264     278.479     181.471
  P      496.173     277.526     180.269
  C      497.899     277.000     178.401
  O      497.395     276.660     179.682
  O      495.934     276.885     181.713
  O      496.415     279.007     180.338
  H      496.241     277.482     182.415
  H      498.703     276.341     178.148
  H      498.255     278.009     178.414
  H      497.119     276.907     177.675

 6  7  8  9  10  11  12  13  14  15  16  26  30  31  32  33  35 0
 6-311+G(2d,p)
 ****
 37  38 0
 6-311+G(2d,p)
 ****
 1  2  3  4  5  17  18  19  20  21  22  23  24  25 0
 3-21G
 ****
 27  28  29  34  36  39  40  41  42  43  44  45  46 0
 3-21G
 ****


