%nproc=1
%NoSave
%Mem=1900MB
#P OB98/GEN NMR

erre ene a

0 1
  C      571.799     565.218    -631.880
  O      571.654     564.568    -630.635
  P      572.875     563.743    -630.006
  C      571.804     561.398    -630.073
  O      572.278     562.458    -629.244
  C      571.707     560.102    -629.267
  O      573.021     559.633    -628.885
  C      570.935     560.233    -627.971
  O      569.538     560.347    -628.187
  C      571.372     558.965    -627.248
  O      570.621     557.826    -627.714
  C      572.849     558.845    -627.685
  N      573.765     559.262    -626.634
  C      574.547     558.250    -626.066
  O      574.382     557.076    -626.384
  N      575.490     558.601    -625.129
  C      575.564     559.823    -624.713
  N      576.564     560.133    -623.834
  C      574.649     560.889    -625.170
  C      573.801     560.552    -626.146
  O      573.850     564.545    -629.213
  O      573.594     563.085    -631.286
  H      574.550     563.265    -631.241
  H      570.740     557.788    -628.693
  H      574.709     561.896    -624.746
  H      573.103     561.269    -626.560
  H      573.080     557.818    -627.971
  H      571.221     559.030    -626.163
  H      571.295     561.107    -627.417
  H      571.251     559.341    -629.920
  H      577.173     559.376    -623.545
  H      572.503     561.268    -630.905
  H      576.903     561.074    -623.703
  H      570.823     561.673    -630.482
  P      568.798     561.600    -627.503
  C      567.065     560.060    -626.337
  O      567.291     561.166    -627.208
  O      568.667     562.657    -628.701
  O      569.526     562.194    -626.339
  H      568.784     563.566    -628.364
  H      566.034     560.122    -625.977
  H      567.749     560.089    -625.486
  H      567.195     559.138    -626.894
  H      570.884     565.712    -632.133
  H      572.035     564.496    -632.634
  H      572.588     565.938    -631.817

 3  4  5  6  7  8  9  10  11  12  13  24  27  28  29  30  32 0
 6-311+G(2d,p)
 ****
 34  35 0
 6-311+G(2d,p)
 ****
 1  2  14  15  16  17  18  19  20  21  22  23  25  26 0
 3-21G
 ****
 31  33  36  37  38  39  40  41  42  43  44  45  46 0
 3-21G
 ****


