%nproc=1
%NoSave
%Mem=1900MB
#P OB98/GEN NMR

erre ene a

0 1
  C     1060.730    -619.776    -162.123
  O     1062.057    -619.569    -162.590
  P     1062.456    -618.244    -163.400
  C     1064.674    -616.960    -163.788
  O     1064.040    -618.065    -163.149
  C     1066.183    -617.023    -163.542
  O     1066.440    -616.833    -162.137
  C     1066.836    -618.351    -163.919
  O     1066.994    -618.464    -165.323
  C     1068.117    -618.279    -163.108
  O     1069.089    -617.458    -163.773
  C     1067.655    -617.573    -161.807
  N     1067.420    -618.505    -160.716
  C     1068.469    -618.660    -159.799
  O     1069.524    -618.021    -159.917
  N     1068.289    -619.503    -158.727
  C     1067.177    -620.154    -158.595
  N     1067.011    -620.933    -157.486
  C     1066.059    -620.065    -159.571
  C     1066.257    -619.227    -160.593
  O     1061.627    -617.032    -163.060
  O     1062.393    -618.663    -164.935
  H     1069.437    -617.984    -164.513
  H     1061.500    -618.541    -165.343
  H     1065.160    -620.643    -159.428
  H     1065.488    -619.088    -161.333
  H     1068.396    -616.826    -161.500
  H     1068.587    -619.258    -162.919
  H     1066.225    -619.196    -163.555
  H     1066.653    -616.198    -164.088
  H     1067.723    -620.819    -156.755
  H     1064.284    -616.030    -163.368
  H     1066.094    -621.226    -157.175
  H     1064.443    -616.997    -164.858
  P     1067.175    -619.933    -165.919
  C     1067.905    -620.843    -168.248
  O     1067.403    -619.752    -167.508
  O     1065.701    -620.570    -165.796
  O     1068.205    -620.765    -165.220
  H     1065.659    -621.167    -165.025
  H     1067.774    -620.639    -169.304
  H     1067.363    -621.770    -168.004
  H     1068.974    -620.975    -168.042
  H     1060.674    -620.714    -161.611
  H     1060.056    -619.783    -162.954
  H     1060.461    -618.987    -161.453

 3  4  5  6  7  8  9  10  11  12  13  23  27  28  29  30  32 0
 6-311+G(2d,p)
 ****
 34  35 0
 6-311+G(2d,p)
 ****
 1  2  14  15  16  17  18  19  20  21  22  24  25  26 0
 3-21G
 ****
 31  33  36  37  38  39  40  41  42  43  44  45  46 0
 3-21G
 ****


