%nproc=1
%NoSave
%Mem=1900MB
#P OB98/GEN NMR

erre ene a

0 1
  C     -492.563     334.314      22.235
  O     -493.010     333.541      23.360
  P     -492.047     332.584      24.215
  C     -490.638     334.137      25.727
  O     -491.771     333.288      25.629
  C     -490.314     334.445      27.197
  O     -489.069     335.179      27.292
  C     -491.322     335.329      27.911
  O     -492.522     334.645      28.217
  C     -490.521     335.767      29.134
  O     -490.587     334.788      30.182
  C     -489.084     335.847      28.577
  N     -488.591     337.209      28.465
  C     -488.140     337.808      29.642
  O     -488.241     337.225      30.720
  N     -487.594     339.073      29.566
  C     -487.599     339.709      28.441
  N     -487.034     340.950      28.425
  C     -488.195     339.167      27.208
  C     -488.664     337.925      27.289
  O     -490.803     332.179      23.495
  O     -492.941     331.309      24.587
  H     -492.364     330.533      24.723
  H     -491.537     334.663      30.390
  H     -488.217     339.755      26.299
  H     -489.106     337.440      26.423
  H     -488.400     335.269      29.207
  H     -490.886     336.712      29.558
  H     -491.542     336.204      27.286
  H     -490.198     333.490      27.727
  H     -486.624     341.287      29.287
  H     -490.857     335.078      25.211
  H     -486.965     341.518      27.594
  H     -489.784     333.662      25.232
  P     -493.887     335.297      27.691
  C     -494.143     334.324      25.300
  O     -494.551     334.276      26.652
  O     -493.396     336.515      26.775
  O     -494.802     335.773      28.774
  H     -493.989     337.281      26.897
  H     -494.278     333.336      24.855
  H     -493.091     334.615      25.205
  H     -494.766     335.040      24.757
  H     -493.386     334.868      21.834
  H     -492.174     333.659      21.484
  H     -491.796     334.991      22.549

 3  4  5  6  7  8  9  10  11  12  13  24  27  28  29  30  32 0
 6-311+G(2d,p)
 ****
 34  35 0
 6-311+G(2d,p)
 ****
 1  2  14  15  16  17  18  19  20  21  22  23  25  26 0
 3-21G
 ****
 31  33  36  37  38  39  40  41  42  43  44  45  46 0
 3-21G
 ****


