%nproc=1
%NoSave
%Mem=1900MB
#P OB98/GEN NMR

erre ene a

0 1
  C      -73.784    -114.147    -177.592
  O      -72.803    -113.593    -178.452
  P      -72.772    -112.021    -178.789
  C      -73.765    -112.406    -181.146
  O      -73.929    -111.798    -179.876
  C      -74.190    -111.441    -182.255
  O      -75.641    -111.393    -182.298
  C      -73.685    -110.004    -182.072
  O      -73.415    -109.477    -183.375
  C      -74.877    -109.304    -181.447
  O      -74.841    -107.896    -181.630
  C      -76.034    -110.012    -182.161
  N      -77.294    -109.894    -181.437
  C      -78.159    -108.860    -181.799
  O      -77.852    -108.062    -182.684
  N      -79.361    -108.750    -181.147
  C      -79.640    -109.548    -180.162
  N      -80.869    -109.435    -179.590
  C      -78.709    -110.582    -179.675
  C      -77.580    -110.713    -180.367
  O      -71.436    -111.493    -179.184
  O      -73.396    -111.327    -177.494
  H      -74.691    -107.713    -182.578
  H      -72.726    -111.166    -176.782
  H      -78.975    -111.204    -178.832
  H      -76.848    -111.462    -180.097
  H      -76.152    -109.617    -183.176
  H      -74.896    -109.502    -180.371
  H      -72.776    -109.950    -181.466
  H      -73.848    -111.847    -183.215
  H      -81.539    -108.836    -180.060
  H      -74.403    -113.294    -181.189
  H      -81.271    -110.204    -179.063
  H      -72.724    -112.721    -181.275
  P      -72.260    -108.372    -183.526
  C      -73.869    -106.496    -184.314
  O      -72.929    -106.927    -183.354
  O      -71.972    -108.420    -185.108
  O      -70.995    -108.626    -182.775
  H      -71.059    -108.117    -185.272
  H      -74.223    -105.498    -184.034
  H      -74.727    -107.172    -184.345
  H      -73.407    -106.437    -185.303
  H      -73.626    -115.201    -177.503
  H      -74.757    -113.966    -177.998
  H      -73.710    -113.692    -176.626

 3  4  5  6  7  8  9  10  11  12  13  23  27  28  29  30  32 0
 6-311+G(2d,p)
 ****
 34  35 0
 6-311+G(2d,p)
 ****
 1  2  14  15  16  17  18  19  20  21  22  24  25  26 0
 3-21G
 ****
 31  33  36  37  38  39  40  41  42  43  44  45  46 0
 3-21G
 ****


