%nproc=1
%NoSave
%Mem=1900MB
#P OB98/GEN NMR

erre ene a

0 1
  C      647.800    -283.830      33.190
  O      646.642    -283.557      32.389
  P      645.205    -284.189      32.725
  C      643.163    -283.518      34.144
  O      644.288    -283.057      33.394
  C      642.128    -282.403      34.359
  O      642.671    -281.354      35.183
  C      641.651    -281.730      33.077
  O      640.691    -282.540      32.415
  C      641.120    -280.407      33.615
  O      639.790    -280.578      34.148
  C      642.113    -280.100      34.740
  N      643.288    -275.199      33.850
  C      642.153    -275.798      34.279
  N      641.915    -277.108      34.486
  C      643.020    -277.833      34.229
  C      644.243    -277.367      33.779
  C      644.362    -275.981      33.586
  N      645.518    -275.379      33.131
  N      645.124    -278.415      33.596
  C      644.444    -279.492      33.950
  N      643.167    -279.191      34.338
  O      645.267    -285.467      33.495
  O      644.519    -284.426      31.294
  H      639.260    -281.032      33.471
  H      643.890    -285.168      31.350
  H      641.322    -275.124      34.485
  H      644.837    -280.503      33.944
  H      641.614    -279.658      35.613
  H      641.062    -279.630      32.845
  H      642.505    -281.540      32.412
  H      641.280    -282.841      34.902
  H      643.523    -283.872      35.120
  H      645.508    -274.383      32.982
  H      646.304    -275.963      32.885
  H      642.708    -284.352      33.607
  P      640.867    -282.877      30.857
  C      642.596    -284.125      29.430
  O      642.064    -283.934      30.729
  O      640.954    -281.700      29.945
  O      639.580    -283.773      30.524
  H      639.327    -283.652      29.586
  H      641.947    -284.805      28.873
  H      643.586    -284.577      29.521
  H      642.691    -283.179      28.902
  H      648.643    -283.309      32.787
  H      647.996    -284.882      33.187
  H      647.625    -283.503      34.194

 3  4  5  6  7  8  9  10  11  12  22  25  29  30  31  32 0
 6-311+G(2d,p)
 ****
 33  36  37 0
 6-311+G(2d,p)
 ****
 1  2  13  14  15  16  17  18  19  20  21  23  24  26 0
 3-21G
 ****
 27  28  34  35  38  39  40  41  42  43  44  45  46  47  48 0
 3-21G
 ****


