%nproc=1
%NoSave
%Mem=1900MB
#P OB98/GEN NMR

erre ene a

0 1
  C      285.504     273.944    -694.139
  O      285.601     275.179    -693.463
  H      285.174     274.098    -695.169
  H      286.488     273.468    -694.148
  H      284.799     273.287    -693.618
  P      284.273     276.085    -693.437
  C      284.378     276.435    -690.868
  O      284.402     277.046    -692.154
  C      285.665     276.768    -690.108
  O      285.959     278.185    -690.234
  C      285.605     276.504    -688.610
  O      285.787     275.118    -688.306
  C      286.789     277.342    -688.132
  O      288.013     276.617    -688.347
  C      286.725     278.558    -689.054
  N      286.220     283.666    -689.242
  C      286.925     282.804    -690.009
  N      287.013     281.457    -689.898
  C      286.273     281.014    -688.869
  C      285.511     281.784    -687.999
  C      285.503     283.168    -688.213
  N      284.793     284.046    -687.413
  N      284.873     280.977    -687.073
  C      285.246     279.743    -687.369
  N      286.110     279.721    -688.457
  O      283.123     275.050    -693.008
  O      283.944     276.767    -694.716
  H      288.135     276.563    -689.315
  H      282.299     275.282    -693.473
  H      287.475     283.245    -690.839
  H      284.927     278.856    -686.846
  H      287.726     278.845    -689.409
  H      286.727     277.580    -687.062
  H      284.677     276.884    -688.175
  H      286.489     276.208    -690.572
  H      284.315     275.346    -690.985
  H      284.665     284.990    -687.728
  H      284.257     283.655    -686.636
  H      283.506     276.793    -690.325
  P      284.785     274.461    -687.252
  C      285.030     272.282    -688.640
  O      285.029     272.872    -687.337
  O      283.336     274.657    -687.929
  O      284.826     275.051    -685.872
  H      282.650     274.667    -687.240
  H      285.202     271.229    -688.555
  H      285.806     272.723    -689.231
  H      284.084     272.452    -689.109

 6  7  8  9  10  11  12  13  14  15  25  28  32  33  34  35 0
 6-311+G(2d,p)
 ****
 36  39  40 0
 6-311+G(2d,p)
 ****
 1  2  3  4  5  16  17  18  19  20  21  22  23  24 0
 3-21G
 ****
 26  27  29  30  31  37  38  41  42  43  44  45  46  47  48 0
 3-21G
 ****


