%nproc=1
%NoSave
%Mem=1900MB
#P OB98/GEN NMR

erre ene a

0 1
  C     -183.587      22.687    -132.393
  O     -182.992      21.731    -131.540
  H     -182.918      22.921    -133.223
  H     -184.515      22.273    -132.796
  H     -183.821      23.598    -131.835
  P     -181.590      22.130    -130.872
  C     -182.768      21.844    -128.580
  O     -181.911      22.645    -129.383
  C     -183.060      22.555    -127.261
  O     -181.857      22.525    -126.449
  C     -183.499      24.024    -127.407
  O     -184.780      24.220    -126.802
  C     -182.466      24.808    -126.613
  O     -183.032      25.876    -125.854
  C     -181.835      23.753    -125.713
  N     -178.966      27.341    -123.505
  C     -180.282      27.053    -123.393
  N     -180.964      26.020    -123.923
  C     -180.140      25.214    -124.617
  C     -178.779      25.362    -124.802
  C     -178.187      26.498    -124.222
  N     -176.857      26.820    -124.384
  N     -178.274      24.339    -125.583
  C     -179.324      23.609    -125.900
  N     -180.479      24.109    -125.354
  O     -181.180      23.470    -131.650
  O     -180.526      21.090    -130.965
  H     -183.439      26.490    -126.493
  H     -180.252      23.409    -131.940
  H     -180.866      27.753    -122.801
  H     -179.317      22.744    -126.550
  H     -182.406      23.603    -124.787
  H     -181.730      25.231    -127.305
  H     -183.525      24.355    -128.452
  H     -183.827      21.984    -126.724
  H     -182.282      20.885    -128.367
  H     -176.544      27.711    -124.035
  H     -176.297      26.258    -125.008
  H     -183.694      21.652    -129.131
  P     -186.056      24.148    -127.779
  C     -187.517      22.438    -126.464
  O     -186.709      22.690    -127.607
  O     -185.391      24.084    -129.233
  O     -186.992      25.302    -127.640
  H     -186.005      24.450    -129.899
  H     -187.875      21.430    -126.495
  H     -188.348      23.112    -126.459
  H     -186.936      22.583    -125.577

 6  7  8  9  10  11  12  13  14  15  25  28  32  33  34  35 0
 6-311+G(2d,p)
 ****
 36  39  40 0
 6-311+G(2d,p)
 ****
 1  2  3  4  5  16  17  18  19  20  21  22  23  24 0
 3-21G
 ****
 26  27  29  30  31  37  38  41  42  43  44  45  46  47  48 0
 3-21G
 ****


