%nproc=1
%NoSave
%Mem=1900MB
#P OB98/GEN NMR

erre ene a

0 1
  C      671.081     757.063    -376.156
  O      672.112     757.646    -375.343
  P      672.976     758.805    -376.043
  C      671.945     760.726    -374.631
  O      672.137     760.183    -375.926
  C      671.234     762.079    -374.697
  O      672.028     763.037    -375.462
  C      669.856     762.025    -375.374
  O      669.016     762.979    -374.710
  C      670.180     762.469    -376.790
  O      669.013     762.857    -377.526
  C      671.182     763.581    -376.472
  N      671.059     766.312    -380.791
  C      670.127     766.078    -379.834
  N      670.229     765.339    -378.710
  C      671.460     764.798    -378.625
  C      672.527     764.958    -379.517
  C      672.285     765.757    -380.657
  N      673.229     765.981    -381.633
  N      673.631     764.226    -379.089
  C      673.207     763.601    -378.007
  N      671.956     763.988    -377.640
  O      672.885     758.438    -377.600
  O      674.374     758.877    -375.557
  H      669.254     762.976    -378.450
  H      673.687     757.982    -377.884
  H      669.165     766.569    -379.989
  H      673.767     762.869    -377.442
  H      670.700     764.476    -376.088
  H      670.637     761.655    -377.340
  H      669.371     761.028    -375.315
  H      671.134     762.467    -373.663
  H      672.912     760.848    -374.129
  H      672.952     766.568    -382.401
  H      674.135     765.564    -381.552
  H      671.378     760.018    -374.013
  P      668.250     762.521    -373.372
  C      668.574     764.719    -372.090
  O      668.951     763.353    -372.191
  O      668.866     761.051    -373.141
  O      666.750     762.548    -373.452
  H      669.814     761.096    -373.183
  H      669.061     765.137    -371.191
  H      667.475     764.805    -371.957
  H      668.900     765.262    -372.965
  H      670.570     756.307    -375.597
  H      671.519     756.626    -377.029
  H      670.385     757.822    -376.448

 3  4  5  6  7  8  9  10  11  12  22  25  29  30  31  32 0
 6-311+G(2d,p)
 ****
 33  36  37 0
 6-311+G(2d,p)
 ****
 1  2  13  14  15  16  17  18  19  20  21  23  24  26 0
 3-21G
 ****
 27  28  34  35  38  39  40  41  42  43  44  45  46  47  48 0
 3-21G
 ****


