%nproc=1
%NoSave
%Mem=1900MB
#P OB98/GEN NMR

erre ene a

0 1
  C     -150.893     144.890     -26.236
  O     -150.986     144.807     -27.644
  H     -150.328     145.788     -25.977
  H     -150.369     144.019     -25.832
  H     -151.890     144.966     -25.794
  P     -151.674     143.505     -28.287
  C     -149.462     142.182     -28.560
  O     -150.698     142.297     -27.870
  C     -148.847     140.806     -28.317
  O     -147.628     140.642     -29.071
  C     -148.446     140.532     -26.870
  O     -149.551     140.278     -26.016
  C     -147.569     139.306     -27.067
  O     -148.398     138.153     -27.302
  C     -146.791     139.696     -28.347
  N     -145.482     140.285     -28.061
  C     -144.502     139.420     -27.560
  O     -144.751     138.228     -27.377
  N     -143.266     139.933     -27.240
  C     -143.037     141.200     -27.390
  N     -141.813     141.665     -27.013
  C     -144.035     142.143     -27.931
  C     -145.224     141.628     -28.238
  O     -152.009     143.586     -29.742
  O     -152.945     143.226     -27.356
  H     -147.820     137.452     -27.654
  H     -153.414     142.435     -27.720
  H     -143.796     143.193     -28.028
  H     -146.015     142.259     -28.625
  H     -146.652     138.825     -28.999
  H     -146.939     139.081     -26.202
  H     -147.828     141.344     -26.474
  H     -149.556     140.055     -28.686
  H     -141.169     141.000     -26.609
  H     -148.799     142.977     -28.210
  H     -141.655     142.653     -26.839
  H     -149.621     142.302     -29.637
  P     -149.432     140.733     -24.480
  C     -149.380     138.192     -23.894
  O     -148.830     139.482     -23.675
  O     -150.959     140.787     -24.007
  O     -148.709     142.022     -24.238
  H     -151.324     141.688     -24.095
  H     -148.868     137.478     -23.284
  H     -149.267     137.926     -24.924
  H     -150.419     138.199     -23.639

 6  7  8  9  10  11  12  13  14  15  16  26  30  31  32  33  35 0
 6-311+G(2d,p)
 ****
 37  38 0
 6-311+G(2d,p)
 ****
 1  2  3  4  5  17  18  19  20  21  22  23  24  25 0
 3-21G
 ****
 27  28  29  34  36  39  40  41  42  43  44  45  46 0
 3-21G
 ****


