%nproc=1
%NoSave
%Mem=1900MB
#P OB98/GEN NMR

erre ene a

0 1
  C       28.749      74.140     -19.528
  O       28.009      73.293     -20.412
  P       26.440      73.613     -20.571
  C       26.519      74.420     -23.044
  O       26.071      73.435     -22.123
  C       27.017      73.768     -24.332
  O       28.286      73.122     -24.127
  C       26.102      72.681     -24.876
  O       25.000      73.227     -25.585
  C       27.044      71.951     -25.824
  O       27.104      72.643     -27.084
  C       28.391      72.047     -25.092
  N       30.411      67.419     -25.521
  C       30.207      68.388     -26.483
  N       30.627      68.091     -27.732
  N       29.645      69.543     -26.243
  C       29.304      69.714     -24.943
  C       29.452      68.831     -23.900
  C       30.047      67.542     -24.186
  O       30.221      66.636     -23.378
  N       28.994      69.363     -22.722
  C       28.596      70.577     -23.046
  N       28.750      70.832     -24.387
  O       26.374      75.197     -20.356
  O       25.572      72.879     -19.606
  H       26.205      72.619     -27.467
  H       25.496      75.452     -20.015
  H       30.842      66.544     -25.763
  H       28.196      71.305     -22.353
  H       29.209      72.302     -25.775
  H       26.718      70.929     -26.040
  H       31.132      67.252     -27.972
  H       25.780      72.002     -24.076
  H       30.518      68.805     -28.443
  H       27.146      74.558     -25.084
  H       27.325      75.005     -22.598
  H       25.697      75.114     -23.248
  P       23.713      72.288     -25.774
  C       21.893      73.845     -24.780
  O       22.473      73.288     -25.941
  O       23.509      71.655     -24.319
  O       23.861      71.240     -26.825
  H       23.086      70.778     -24.389
  H       22.659      74.170     -24.071
  H       21.240      73.109     -24.304
  H       21.293      74.713     -25.069
  H       29.772      73.828     -19.508
  H       28.337      74.074     -18.543
  H       28.691      75.152     -19.872

 3  4  5  6  7  8  9  10  11  12  23  26  30  31  33  0
 6-311+G(2d,p)
 ****
 35  36  37  38 0
 6-311+G(2d,p)
 ****
 1  2  13  14  15  16  17  18  19  20  21  22  24  25  27  28  29 0
 3-21G
 ****
 32  34  39  40  41  42  43  44  45  46  47  48  49 0
 3-21G
 ****


