%nproc=1
%NoSave
%Mem=1900MB
#P OB98/GEN NMR

erre ene a

0 1
  C       -9.835    -147.554     169.059
  O       -9.494    -146.845     170.240
  P      -10.637    -146.300     171.225
  C      -10.971    -144.305     169.636
  O      -11.601    -145.371     170.335
  C      -11.941    -143.139     169.440
  O      -12.905    -143.502     168.421
  C      -12.722    -142.780     170.702
  O      -12.910    -141.362     170.738
  C      -14.079    -143.436     170.506
  O      -15.101    -142.749     171.243
  C      -14.225    -143.366     168.978
  N      -19.033    -144.863     167.936
  C      -18.539    -143.703     168.435
  N      -17.254    -143.385     168.713
  C      -16.434    -144.394     168.362
  C      -16.793    -145.628     167.840
  C      -18.164    -145.851     167.627
  N      -18.661    -147.026     167.104
  N      -15.670    -146.418     167.636
  C      -14.661    -145.662     168.015
  N      -15.070    -144.427     168.452
  O      -10.142    -145.659     172.476
  O      -11.549    -147.579     171.530
  H      -14.909    -142.881     172.190
  H      -11.847    -147.571     172.463
  H      -19.273    -142.934     168.647
  H      -13.621    -145.961     168.004
  H      -14.637    -142.403     168.653
  H      -14.043    -144.470     170.858
  H      -12.225    -143.121     171.619
  H      -11.379    -142.275     169.067
  H      -10.653    -144.674     168.656
  H      -19.645    -147.051     166.875
  H      -18.005    -147.693     166.716
  H      -10.081    -143.982     170.186
  P      -13.102    -140.718     172.203
  C      -15.705    -140.649     172.337
  O      -14.506    -141.293     172.719
  O      -12.933    -139.234     172.193
  O      -11.989    -141.514     173.044
  H      -11.781    -142.384     172.635
  H      -16.546    -141.161     172.818
  H      -15.833    -140.710     171.255
  H      -15.697    -139.602     172.656
  H       -8.942    -147.832     168.539
  H      -10.435    -146.930     168.429
  H      -10.386    -148.434     169.318

 3  4  5  6  7  8  9  10  11  12  22  25  29  30  31  32 0
 6-311+G(2d,p)
 ****
 33  36  37 0
 6-311+G(2d,p)
 ****
 1  2  13  14  15  16  17  18  19  20  21  23  24  26 0
 3-21G
 ****
 27  28  34  35  38  39  40  41  42  43  44  45  46  47  48 0
 3-21G
 ****


