%nproc=1
%NoSave
%Mem=1900MB
#P OB98/GEN NMR

erre ene a

0 1
  C     -111.273    -319.259    -373.018
  O     -111.003    -320.196    -371.968
  P     -111.670    -321.656    -371.910
  C     -109.659    -323.116    -372.602
  O     -110.941    -322.612    -372.967
  C     -109.725    -324.601    -372.223
  O     -110.236    -325.384    -373.315
  C     -108.379    -325.228    -371.872
  O     -107.958    -324.842    -370.576
  C     -108.702    -326.715    -372.017
  O     -109.340    -327.226    -370.837
  C     -109.678    -326.710    -373.212
  N     -109.036    -327.118    -374.459
  C     -109.546    -328.270    -375.069
  O     -110.443    -328.920    -374.533
  N     -108.996    -328.675    -376.270
  C     -107.990    -328.028    -376.768
  N     -107.491    -328.469    -377.961
  C     -107.368    -326.861    -376.111
  C     -107.938    -326.467    -374.972
  O     -113.161    -321.645    -372.020
  O     -111.225    -322.258    -370.490
  H     -110.180    -326.736    -370.735
  H     -111.919    -322.860    -370.164
  H     -106.507    -326.368    -376.545
  H     -107.556    -325.610    -374.424
  H     -110.525    -327.382    -373.021
  H     -107.806    -327.322    -372.186
  H     -107.627    -324.943    -372.615
  H     -110.428    -324.704    -371.381
  H     -107.942    -329.262    -378.391
  H     -109.293    -322.537    -371.746
  H     -106.714    -328.033    -378.433
  H     -108.967    -322.972    -373.442
  P     -106.955    -323.601    -370.398
  C     -108.770    -322.112    -369.355
  O     -107.833    -322.263    -370.408
  O     -105.774    -323.597    -371.318
  O     -106.488    -323.708    -368.872
  H     -105.575    -323.365    -368.796
  H     -108.997    -321.054    -369.235
  H     -108.367    -322.504    -368.415
  H     -109.684    -322.648    -369.612
  H     -110.719    -318.360    -372.845
  H     -112.319    -319.035    -373.036
  H     -110.983    -319.682    -373.957

 3  4  5  6  7  8  9  10  11  12  13  23  27  28  29  30  32 0
 6-311+G(2d,p)
 ****
 34  35 0
 6-311+G(2d,p)
 ****
 1  2  14  15  16  17  18  19  20  21  22  24  25  26 0
 3-21G
 ****
 31  33  36  37  38  39  40  41  42  43  44  45  46 0
 3-21G
 ****


