%nproc=1
%NoSave
%Mem=1900MB
#P OB98/GEN NMR

erre ene a

0 1
  C      329.284    -171.431     189.272
  O      329.017    -172.362     188.211
  P      328.447    -173.822     188.574
  C      327.218    -174.100     186.281
  O      328.159    -174.616     187.212
  C      327.414    -174.756     184.912
  O      328.689    -174.376     184.344
  C      327.433    -176.279     184.942
  O      326.131    -176.823     185.074
  C      328.090    -176.600     183.608
  O      327.129    -176.562     182.538
  C      329.104    -175.444     183.465
  N      330.475    -175.862     183.746
  C      331.104    -176.616     182.760
  O      330.544    -176.977     181.726
  N      332.400    -176.973     183.019
  C      333.088    -176.716     184.170
  O      334.244    -177.080     184.349
  C      332.344    -175.987     185.207
  C      331.090    -175.606     184.952
  O      326.962    -173.481     189.079
  O      329.205    -174.569     189.622
  H      326.745    -175.662     182.537
  H      326.673    -174.161     189.718
  H      332.886    -177.493     182.306
  H      332.845    -175.785     186.145
  H      330.528    -175.067     185.709
  H      329.065    -175.031     182.452
  H      328.547    -177.594     183.592
  H      328.083    -176.628     185.754
  H      326.621    -174.393     184.244
  H      327.363    -173.021     186.183
  H      326.206    -174.287     186.656
  P      325.708    -177.333     186.539
  C      323.251    -177.875     185.821
  O      324.493    -178.351     186.295
  O      325.030    -176.012     187.137
  O      326.857    -177.856     187.331
  H      324.575    -175.490     186.452
  H      323.377    -177.025     185.147
  H      322.631    -177.578     186.672
  H      322.749    -178.683     185.283
  H      329.655    -170.516     188.859
  H      330.015    -171.845     189.935
  H      328.381    -171.238     189.813

 3  4  5  6  7  8  9  10  11  12  13  23  28  29  30  31  32 0
 6-311+G(2d,p)
 ****
 33  34 0
 6-311+G(2d,p)
 ****
 1  2  14  15  16  17  18  19  20  21  22  24  25  26 0
 3-21G
 ****
 27  35  36  37  38  39  40  41  42  43  44  45 0
 3-21G
 ****


