%nproc=1
%NoSave
%Mem=1900MB
#P OB98/GEN NMR

erre ene a

0 1
  C      384.524     -98.244     865.324
  O      384.037     -98.009     866.645
  P      382.798     -96.990     866.823
  C      381.768     -99.008     868.057
  O      381.517     -97.844     867.269
  C      380.507     -99.370     868.888
  O      380.321     -98.449     869.975
  C      379.231     -99.320     868.092
  O      379.121    -100.441     867.219
  C      378.183     -99.257     869.201
  O      377.923    -100.568     869.727
  C      378.907     -98.407     870.274
  N      378.425     -97.036     870.334
  C      378.213     -96.529     871.624
  O      378.387     -97.238     872.616
  N      377.780     -95.217     871.757
  C      377.588     -94.497     870.698
  N      377.165     -93.221     870.881
  C      377.786     -95.002     869.321
  C      378.210     -96.272     869.229
  O      382.587     -96.020     865.710
  O      383.189     -96.231     868.200
  H      377.186    -100.474     870.358
  H      382.807     -95.319     868.154
  H      377.632     -94.367     868.465
  H      378.381     -96.715     868.248
  H      378.781     -98.862     871.264
  H      377.240     -98.846     868.849
  H      379.184     -98.394     867.499
  H      380.663    -100.369     869.296
  H      377.034     -92.907     871.828
  H      382.608     -98.833     868.713
  H      377.044     -92.556     870.120
  H      382.027     -99.832     867.388
  P      378.317    -100.235     865.840
  C      380.434     -99.968     864.363
  O      379.232     -99.382     864.857
  O      377.141     -99.212     866.259
  O      377.747    -101.485     865.258
  H      376.338     -99.409     865.739
  H      380.763     -99.390     863.484
  H      380.276    -101.005     864.068
  H      381.216     -99.927     865.136
  H      385.340     -98.935     865.362
  H      384.858     -97.321     864.898
  H      383.739     -98.651     864.722

 3  4  5  6  7  8  9  10  11  12  13  23  27  28  29  30  32 0
 6-311+G(2d,p)
 ****
 34  35 0
 6-311+G(2d,p)
 ****
 1  2  14  15  16  17  18  19  20  21  22  24  25  26 0
 3-21G
 ****
 31  33  36  37  38  39  40  41  42  43  44  45  46 0
 3-21G
 ****


