%nproc=1
%NoSave
%Mem=1900MB
#P OB98/GEN NMR

erre ene a

0 1
  C      372.286     114.133     -25.101
  O      372.940     113.764     -23.905
  H      372.576     115.155     -25.362
  H      371.203     114.100     -24.963
  H      372.579     113.464     -25.915
  P      372.645     112.292     -23.342
  C      371.008     113.079     -21.488
  O      371.173     112.347     -22.695
  C      369.542     113.078     -21.060
  O      369.407     113.852     -19.835
  C      368.589     113.689     -22.100
  O      367.366     112.946     -22.098
  C      368.323     115.075     -21.546
  O      367.102     115.625     -22.030
  C      368.336     114.790     -20.046
  N      365.962     118.798     -18.132
  C      365.467     117.720     -18.846
  N      364.142     117.703     -19.092
  N      366.219     116.738     -19.282
  C      367.523     116.869     -18.943
  C      368.135     117.889     -18.249
  C      367.297     118.979     -17.790
  O      367.678     119.968     -17.175
  N      369.487     117.670     -18.141
  C      369.692     116.522     -18.760
  N      368.529     115.996     -19.259
  O      373.604     112.182     -22.063
  O      372.866     111.178     -24.307
  H      366.427     114.911     -22.025
  H      373.883     111.257     -21.914
  H      365.342     119.529     -17.830
  H      370.652     116.034     -18.879
  H      367.399     114.331     -19.702
  H      369.140     115.755     -21.820
  H      363.497     118.406     -18.759
  H      369.005     113.714     -23.108
  H      363.756     116.917     -19.606
  H      369.247     112.049     -20.816
  H      371.343     114.109     -21.648
  H      371.624     112.620     -20.704
  P      367.162     111.850     -23.254
  C      366.102     113.478     -24.974
  O      367.173     112.591     -24.678
  O      365.632     111.413     -23.069
  O      368.075     110.672     -23.135
  H      365.586     110.516     -22.696
  H      366.243     113.894     -25.949
  H      366.080     114.265     -24.250
  H      365.177     112.942     -24.946

 6  7  8  9  10  11  12  13  14  15  26  29  33  34 0
 6-311+G(2d,p)
 ****
 36  38  39  40  41 0
 6-311+G(2d,p)
 ****
 1  2  3  4  5  16  17  18  19  20  21  22  23  24  25 0
 3-21G
 ****
 27  28  30  31  32  35  37  42  43  44  45  46  47 0
 3-21G
 ****
 48  49 0
 3-21G
 ****


