%nproc=1
%NoSave
%Mem=1900MB
#P OB98/GEN NMR

erre ene a

0 1
  C       -0.656      39.006      -4.278
  O       -1.679      38.312      -3.599
  H       -1.069      39.940      -4.669
  H       -0.297      38.403      -5.117
  H        0.178      39.242      -3.612
  P       -1.272      37.157      -2.569
  C       -3.313      37.770      -1.116
  O       -2.595      36.730      -1.766
  C       -4.655      37.281      -0.569
  O       -5.527      36.898      -1.655
  C       -4.506      36.040       0.311
  O       -4.170      36.293       1.663
  C       -5.893      35.413       0.201
  O       -6.795      35.990       1.159
  C       -6.317      35.777      -1.224
  N       -8.224      31.408      -3.060
  C       -8.687      32.189      -2.019
  N       -9.758      31.713      -1.347
  N       -8.133      33.318      -1.665
  C       -7.014      33.618      -2.364
  C       -6.452      32.917      -3.407
  C       -7.105      31.694      -3.828
  O       -6.732      30.962      -4.740
  N       -5.317      33.533      -3.874
  C       -5.152      34.562      -3.068
  N       -6.172      34.671      -2.152
  O       -0.424      37.932      -1.450
  O       -0.484      36.025      -3.154
  H       -7.664      35.562       1.058
  H        0.200      37.319      -1.023
  H       -8.706      30.562      -3.308
  H       -4.333      35.270      -3.121
  H       -7.367      36.092      -1.261
  H       -5.866      34.337       0.400
  H      -10.144      30.796      -1.509
  H       -3.780      35.348      -0.126
  H       -9.959      32.111      -0.428
  H       -5.147      38.102      -0.033
  H       -3.477      38.552      -1.860
  H       -2.710      38.205      -0.315
  P       -3.158      35.321       2.432
  C       -2.036      37.218       3.816
  O       -2.795      36.029       3.823
  O       -1.815      35.457       1.573
  O       -3.606      33.905       2.541
  H       -1.749      34.724       0.933
  H       -1.887      37.552       4.822
  H       -2.558      37.971       3.264
  H       -1.087      37.033       3.357

 6  7  8  9  10  11  12  13  14  15  26  29  33  34 0
 6-311+G(2d,p)
 ****
 36  38  39  40  41 0
 6-311+G(2d,p)
 ****
 1  2  3  4  5  16  17  18  19  20  21  22  23  24  25 0
 3-21G
 ****
 27  28  30  31  32  35  37  42  43  44  45  46  47 0
 3-21G
 ****
 48  49 0
 3-21G
 ****


