%nproc=1
%NoSave
%Mem=1900MB
#P OB98/GEN NMR

erre ene a

0 1
  C     -276.865     444.948    -220.852
  O     -275.865     444.086    -220.296
  P     -274.337     444.460    -220.604
  C     -274.425     442.785    -222.592
  O     -273.699     443.266    -221.471
  C     -273.672     441.632    -223.255
  O     -272.504     442.100    -223.968
  C     -273.152     440.600    -222.262
  O     -274.197     439.772    -221.786
  C     -272.114     439.881    -223.122
  O     -272.752     438.932    -223.995
  C     -271.526     441.035    -223.948
  N     -266.573     439.980    -223.193
  C     -267.573     439.262    -223.753
  N     -268.868     439.618    -223.909
  C     -269.083     440.854    -223.443
  C     -268.165     441.703    -222.851
  C     -266.850     441.220    -222.728
  N     -265.832     441.948    -222.143
  N     -268.762     442.894    -222.486
  C     -270.031     442.752    -222.832
  N     -270.274     441.542    -223.418
  O     -273.623     444.318    -219.179
  O     -274.159     445.826    -221.180
  H     -273.454     439.415    -224.484
  H     -273.396     445.198    -218.834
  H     -267.304     438.272    -224.112
  H     -270.807     443.499    -222.673
  H     -271.336     440.739    -224.992
  H     -271.375     439.332    -222.532
  H     -272.656     441.102    -221.417
  H     -274.347     441.149    -223.974
  H     -274.584     443.593    -223.316
  H     -264.940     441.495    -222.027
  H     -266.052     442.837    -221.720
  H     -275.422     442.468    -222.260
  P     -274.930     440.207    -220.430
  C     -273.566     438.419    -219.185
  O     -274.861     438.883    -219.523
  O     -276.459     440.245    -220.883
  O     -274.399     441.452    -219.793
  H     -276.701     439.462    -221.413
  H     -273.667     437.539    -218.545
  H     -273.018     439.195    -218.642
  H     -273.022     438.138    -220.089
  H     -277.836     444.593    -220.576
  H     -276.778     444.954    -221.918
  H     -276.729     445.941    -220.477

 3  4  5  6  7  8  9  10  11  12  22  25  29  30  31  32 0
 6-311+G(2d,p)
 ****
 33  36  37 0
 6-311+G(2d,p)
 ****
 1  2  13  14  15  16  17  18  19  20  21  23  24  26 0
 3-21G
 ****
 27  28  34  35  38  39  40  41  42  43  44  45  46  47  48 0
 3-21G
 ****


