%nproc=1
%NoSave
%Mem=1900MB
#P OB98/GEN NMR

erre ene a

0 1
  C     -893.120    -718.025    -274.158
  O     -894.480    -717.766    -274.412
  P     -895.210    -716.508    -273.727
  C     -895.640    -715.656    -271.347
  O     -895.310    -716.781    -272.151
  C     -896.890    -715.960    -270.516
  O     -896.680    -717.140    -269.681
  C     -897.280    -714.860    -269.548
  O     -897.860    -713.754    -270.220
  C     -898.230    -715.594    -268.638
  O     -899.540    -715.711    -269.210
  C     -897.570    -716.971    -268.549
  N     -896.850    -717.192    -267.293
  C     -897.620    -717.557    -266.185
  O     -898.850    -717.630    -266.282
  N     -896.980    -717.844    -265.002
  C     -895.710    -717.649    -264.882
  N     -895.130    -718.005    -263.719
  C     -894.880    -717.103    -265.992
  C     -895.510    -716.908    -267.146
  O     -896.480    -716.083    -274.370
  O     -894.110    -715.347    -273.818
  H     -894.540    -714.532    -274.190
  H     -900.000    -716.402    -268.702
  H     -893.840    -716.888    -265.823
  H     -894.960    -716.536    -268.024
  H     -898.320    -717.779    -268.652
  H     -898.360    -715.094    -267.669
  H     -896.400    -714.533    -268.990
  H     -897.740    -716.181    -271.205
  H     -895.720    -718.390    -263.003
  H     -895.850    -714.822    -272.013
  H     -894.140    -718.190    -263.635
  H     -894.800    -715.413    -270.699
  P     -897.940    -712.379    -269.396
  C     -898.900    -711.639    -267.096
  O     -898.700    -712.693    -268.022
  O     -899.010    -711.504    -270.214
  O     -896.640    -711.644    -269.261
  H     -898.770    -710.575    -270.208
  H     -899.700    -711.934    -266.400
  H     -899.190    -710.720    -267.608
  H     -897.970    -711.474    -266.518
  H     -892.816    -718.897    -274.699
  H     -892.978    -718.187    -273.110
  H     -892.533    -717.188    -274.472

 3  4  5  6  7  8  9  10  11  12  13  24  27  28  29  30  32 0
 6-311+G(2d,p)
 ****
 34  35 0
 6-311+G(2d,p)
 ****
 1  2  14  15  16  17  18  19  20  21  22  23  25  26 0
 3-21G
 ****
 31  33  36  37  38  39  40  41  42  43  44  45  46 0
 3-21G
 ****


