%nproc=1
%NoSave
%Mem=1900MB
#P OB98/GEN NMR

erre ene a

0 1
  C      397.317     -53.681     854.940
  O      397.022     -54.806     855.772
  P      397.107     -56.255     855.111
  C      394.550     -56.337     854.681
  O      395.847     -56.381     854.120
  C      393.644     -57.371     854.027
  O      393.599     -57.183     852.583
  C      394.103     -58.816     854.221
  O      393.715     -59.343     855.479
  C      393.341     -59.523     853.096
  O      391.979     -59.753     853.494
  C      393.400     -58.475     851.971
  N      394.817     -61.288     847.982
  C      393.569     -61.149     848.599
  N      392.583     -61.935     848.101
  N      393.315     -60.340     849.586
  C      394.411     -59.626     849.978
  C      395.687     -59.657     849.461
  C      395.946     -60.573     848.369
  O      397.047     -60.767     847.825
  N      396.522     -58.784     850.116
  C      395.759     -58.219     851.032
  N      394.465     -58.738     851.006
  O      396.734     -57.246     856.315
  O      398.442     -56.598     854.507
  H      391.479     -60.004     852.687
  H      397.016     -58.161     856.103
  H      394.959     -61.924     847.232
  H      396.072     -57.461     851.726
  H      392.460     -58.433     851.407
  H      393.762     -60.485     852.829
  H      392.721     -62.628     847.373
  H      395.184     -58.924     854.046
  H      391.676     -61.918     848.556
  H      392.619     -57.239     854.407
  H      394.130     -55.334     854.537
  H      394.612     -56.516     855.762
  P      394.824     -60.198     856.278
  C      393.512     -62.410     855.942
  O      394.697     -61.684     855.720
  O      394.204     -60.288     857.760
  O      396.190     -59.576     856.266
  H      394.915     -60.391     858.407
  H      393.484     -63.275     855.281
  H      392.626     -61.793     855.739
  H      393.475     -62.748     856.987
  H      397.221     -52.781     855.510
  H      396.633     -53.657     854.118
  H      398.317     -53.764     854.570

 3  4  5  6  7  8  9  10  11  12  23  26  30  31 0
 6-311+G(2d,p)
 ****
 33  35  36  37  38 0
 6-311+G(2d,p)
 ****
 1  2  13  14  15  16  17  18  19  20  21  22  24  25 0
 3-21G
 ****
 27  28  29  32  34  39  40  41  42  43  44  45  46  47  48  49 0
 3-21G
 ****


