%nproc=1
%NoSave
%Mem=1900MB
#P OB98/GEN NMR

erre ene a

0 1
  C      -26.863    -501.337       9.795
  O      -27.670    -502.063      10.727
  P      -26.983    -503.335      11.444
  C      -28.211    -503.285      13.739
  O      -28.050    -503.926      12.484
  C      -29.659    -503.396      14.223
  O      -30.488    -502.397      13.613
  C      -30.324    -504.721      13.891
  O      -29.945    -505.745      14.801
  C      -31.797    -504.368      14.065
  O      -32.155    -504.447      15.460
  C      -31.843    -502.913      13.572
  N      -35.978    -502.995      10.644
  C      -35.855    -503.186      12.002
  N      -37.005    -503.398      12.687
  N      -34.713    -503.168      12.640
  C      -33.654    -502.907      11.836
  C      -33.644    -502.705      10.476
  C      -34.914    -502.760       9.774
  O      -35.071    -502.628       8.565
  N      -32.374    -502.467      10.007
  C      -31.623    -502.495      11.089
  N      -32.354    -502.773      12.219
  O      -25.886    -502.654      12.392
  O      -26.377    -504.310      10.496
  H      -32.036    -505.378      15.732
  H      -25.148    -503.276      12.551
  H      -36.884    -503.026      10.200
  H      -30.552    -502.318      11.109
  H      -32.448    -502.278      14.233
  H      -32.463    -505.052      13.527
  H      -37.921    -503.354      12.271
  H      -30.132    -505.013      12.847
  H      -36.938    -503.503      13.691
  H      -29.663    -503.238      15.315
  H      -27.940    -502.227      13.651
  H      -27.520    -503.737      14.456
  P      -29.764    -507.228      14.205
  C      -27.366    -507.112      15.194
  O      -28.541    -507.878      15.025
  O      -29.161    -506.967      12.748
  O      -31.022    -508.030      14.156
  H      -29.420    -507.685      12.138
  H      -27.603    -506.074      15.446
  H      -26.775    -507.137      14.272
  H      -26.784    -507.546      16.004
  H      -27.429    -500.523       9.391
  H      -26.560    -501.989       9.002
  H      -25.997    -500.956      10.294

 3  4  5  6  7  8  9  10  11  12  23  26  30  31  33  0
 6-311+G(2d,p)
 ****
 35  36  37  38 0
 6-311+G(2d,p)
 ****
 1  2  13  14  15  16  17  18  19  20  21  22  24  25  27  28  29 0
 3-21G
 ****
 32  34  39  40  41  42  43  44  45  46  47  48  49 0
 3-21G
 ****


