%nproc=1
%NoSave
%Mem=1900MB
#P OB98/GEN NMR

erre ene a

0 1
  C       31.109    -439.557    -386.864
  O       30.422    -440.544    -387.614
  P       31.275    -441.532    -388.538
  C       30.914    -443.887    -387.497
  O       31.764    -442.756    -387.623
  C       31.729    -445.178    -387.619
  O       32.174    -445.339    -389.002
  C       32.978    -445.216    -386.730
  O       33.172    -446.578    -386.319
  C       34.080    -444.814    -387.692
  O       35.374    -445.191    -387.252
  C       33.600    -445.527    -388.961
  N       34.246    -445.022    -390.173
  C       35.620    -445.207    -390.288
  O       36.314    -445.760    -389.436
  N       36.201    -444.667    -391.402
  C       35.579    -443.905    -392.348
  O       36.180    -443.354    -393.263
  C       34.124    -443.746    -392.178
  C       33.537    -444.302    -391.113
  O       32.621    -440.706    -388.816
  O       30.601    -441.939    -389.805
  H       36.020    -444.808    -387.869
  H       32.589    -440.292    -389.698
  H       37.197    -444.800    -391.511
  H       33.593    -443.164    -392.918
  H       32.470    -444.180    -390.954
  H       33.780    -446.605    -388.877
  H       34.070    -443.725    -387.818
  H       32.918    -444.561    -385.857
  H       31.071    -446.025    -387.392
  H       30.163    -443.861    -388.286
  H       30.395    -443.848    -386.533
  P       33.871    -446.841    -384.897
  C       31.646    -446.808    -383.529
  O       32.902    -446.219    -383.787
  O       35.094    -445.806    -384.970
  O       34.302    -448.257    -384.691
  H       34.834    -444.942    -385.330
  H       31.676    -447.892    -383.648
  H       30.905    -446.391    -384.215
  H       31.347    -446.572    -382.505
  H       30.404    -438.981    -386.302
  H       31.646    -438.913    -387.529
  H       31.796    -440.032    -386.195

 3  4  5  6  7  8  9  10  11  12  13  23  28  29  30  31  32 0
 6-311+G(2d,p)
 ****
 33  34 0
 6-311+G(2d,p)
 ****
 1  2  14  15  16  17  18  19  20  21  22  24  25  26 0
 3-21G
 ****
 27  35  36  37  38  39  40  41  42  43  44  45 0
 3-21G
 ****


