%nproc=1
%NoSave
%Mem=1900MB
#P OB98/GEN NMR

erre ene a

0 1
  C      675.221    -893.390    -734.289
  O      674.032    -893.550    -733.511
  P      673.901    -894.830    -732.558
  C      672.552    -896.160    -734.315
  O      672.590    -895.650    -732.976
  C      671.279    -897.010    -734.533
  O      671.305    -898.150    -733.612
  C      669.939    -896.280    -734.251
  O      669.331    -895.570    -735.317
  C      669.036    -897.450    -733.907
  O      668.517    -898.020    -735.139
  C      669.948    -898.440    -733.205
  N      666.896    -899.430    -729.235
  C      666.729    -899.590    -730.554
  N      667.587    -899.290    -731.558
  C      668.746    -898.800    -731.055
  C      669.070    -898.590    -729.724
  C      668.060    -898.930    -728.778
  N      668.240    -898.750    -727.434
  N      670.330    -898.070    -729.618
  C      670.761    -897.970    -730.844
  N      669.837    -898.400    -731.766
  O      674.074    -894.580    -731.097
  O      675.083    -895.770    -733.109
  H      667.985    -898.800    -734.886
  H      675.494    -896.250    -732.345
  H      665.759    -900.000    -730.854
  H      671.736    -897.560    -731.140
  H      669.738    -899.490    -733.509
  H      668.154    -897.140    -733.337
  H      670.045    -895.630    -733.378
  H      671.260    -897.390    -735.551
  H      673.438    -896.780    -734.510
  H      667.478    -898.970    -726.800
  H      669.098    -898.320    -727.085
  H      672.608    -895.310    -734.978
  P      669.559    -893.970    -735.509
  C      667.129    -893.620    -734.624
  O      668.094    -893.340    -735.611
  O      670.496    -893.610    -736.626
  O      670.054    -893.530    -734.059
  H      669.362    -893.580    -733.361
  H      666.278    -892.930    -734.744
  H      667.536    -893.480    -733.613
  H      666.760    -894.650    -734.732
  H      675.151    -892.492    -734.867
  H      675.334    -894.228    -734.945
  H      676.068    -893.330    -733.638

 3  4  5  6  7  8  9  10  11  12  22  25  29  30  31  32 0
 6-311+G(2d,p)
 ****
 33  36  37 0
 6-311+G(2d,p)
 ****
 1  2  13  14  15  16  17  18  19  20  21  23  24  26 0
 3-21G
 ****
 27  28  34  35  38  39  40  41  42  43  44  45  46  47  48 0
 3-21G
 ****


