%nproc=1
%NoSave
%Mem=1900MB
#P OB98/GEN NMR

erre ene a

0 1
  C     -168.513    -777.995    -290.063
  O     -168.340    -776.718    -290.645
  H     -168.529    -777.885    -288.976
  H     -167.675    -778.647    -290.334
  H     -169.452    -778.437    -290.394
  P     -168.220    -776.660    -292.245
  C     -166.132    -776.361    -293.766
  O     -166.689    -776.965    -292.603
  C     -164.708    -776.873    -293.981
  O     -163.918    -776.633    -292.793
  C     -164.620    -778.370    -294.239
  O     -164.962    -778.710    -295.573
  C     -163.155    -778.634    -293.916
  O     -162.313    -778.341    -295.045
  C     -162.887    -777.647    -292.756
  N     -162.830    -778.325    -291.458
  C     -161.575    -778.350    -290.848
  O     -160.567    -777.842    -291.346
  N     -161.509    -779.013    -289.659
  C     -162.543    -779.682    -289.046
  O     -162.396    -780.319    -288.012
  C     -163.836    -779.606    -289.734
  C     -163.926    -778.952    -290.898
  O     -168.384    -775.096    -292.568
  O     -169.214    -777.496    -292.984
  H     -169.282    -774.920    -292.900
  H     -161.400    -778.547    -294.764
  H     -160.605    -779.053    -289.201
  H     -164.677    -780.117    -289.274
  H     -164.869    -778.902    -291.431
  H     -161.932    -777.129    -292.905
  H     -162.973    -779.675    -293.653
  H     -165.236    -778.916    -293.513
  H     -164.259    -776.308    -294.812
  H     -166.103    -775.276    -293.634
  H     -166.766    -776.600    -294.625
  P     -165.399    -780.225    -295.889
  C     -164.096    -782.355    -296.702
  O     -164.044    -781.036    -296.189
  O     -166.080    -780.052    -297.329
  O     -166.279    -780.829    -294.841
  H     -165.647    -779.379    -297.876
  H     -163.101    -782.725    -296.835
  H     -164.604    -782.352    -297.644
  H     -164.622    -782.984    -296.015

 6  7  8  9  10  11  12  13  14  15  16  27  31  32  33  34  35 0
 6-311+G(2d,p)
 ****
 36  37 0
 6-311+G(2d,p)
 ****
 1  2  3  4  5  17  18  19  20  21  22  23  24  25 0
 3-21G
 ****
 26  28  29  30  38  39  40  41  42  43  44  45 0
 3-21G
 ****


