%nproc=1
%NoSave
%Mem=1900MB
#P OB98/GEN NMR

erre ene a

0 1
  C        1.696     -61.913     -94.381
  O        2.681     -62.506     -93.555
  H        0.710     -62.126     -93.961
  H        1.751     -62.338     -95.387
  H        1.836     -60.829     -94.425
  P        4.202     -62.115     -93.867
  C        4.641     -64.041     -95.593
  O        4.537     -62.644     -95.349
  C        5.995     -64.363     -96.217
  O        6.207     -63.585     -97.412
  C        7.186     -64.011     -95.343
  O        7.341     -64.892     -94.253
  C        8.317     -64.098     -96.358
  O        8.785     -65.442     -96.517
  C        7.634     -63.598     -97.655
  N        8.138     -62.301     -98.064
  C        9.371     -62.320     -98.728
  O        9.940     -63.390     -98.945
  N        9.940     -61.128     -99.092
  C        9.346     -60.014     -98.796
  N        9.980     -58.865     -99.156
  C        8.047     -59.949     -98.096
  C        7.504     -61.120     -97.761
  O        5.017     -63.120     -92.928
  O        4.533     -60.676     -93.656
  H        7.986     -66.001     -96.613
  H        4.728     -64.044     -93.000
  H        7.587     -58.996     -97.883
  H        6.552     -61.166     -97.245
  H        7.803     -64.307     -98.476
  H        9.177     -63.495     -96.056
  H        7.111     -62.969     -95.004
  H        6.000     -65.428     -96.489
  H       10.894     -58.954     -99.584
  H        3.830     -64.378     -96.246
  H        9.653     -57.943     -98.909
  H        4.530     -64.555     -94.633
  P        7.730     -64.355     -92.796
  C       10.257     -64.415     -93.291
  O        9.143     -63.601     -92.943
  O        7.688     -65.373     -91.707
  O        6.722     -63.129     -92.581
  H        6.796     -62.418     -93.240
  H       11.135     -63.807     -93.359
  H       10.074     -64.885     -94.235
  H       10.399     -65.164     -92.541

 6  7  8  9  10  11  12  13  14  15  16  26  30  31  32  33  35 0
 6-311+G(2d,p)
 ****
 37  38 0
 6-311+G(2d,p)
 ****
 1  2  3  4  5  17  18  19  20  21  22  23  24  25 0
 3-21G
 ****
 27  28  29  34  36  39  40  41  42  43  44  45  46 0
 3-21G
 ****


