%nproc=1
%NoSave
%Mem=1900MB
#P OB98/GEN NMR

erre ene a

0 1
  C     -118.506     270.890    -186.253
  O     -119.475     271.900    -186.476
  P     -119.904     272.326    -187.969
  C     -121.956     270.750    -187.952
  O     -120.699     271.054    -188.538
  C     -122.976     270.436    -189.046
  O     -123.193     271.609    -189.851
  C     -122.552     269.335    -190.010
  O     -122.693     268.053    -189.420
  C     -123.471     269.623    -191.192
  O     -124.783     269.091    -190.942
  C     -123.525     271.164    -191.196
  N     -122.623     271.759    -192.180
  C     -123.128     272.855    -192.891
  O     -124.264     273.282    -192.686
  N     -122.311     273.465    -193.810
  C     -121.112     273.014    -194.016
  N     -120.321     273.703    -194.888
  C     -120.562     271.832    -193.330
  C     -121.369     271.262    -192.427
  O     -118.787     272.802    -188.830
  O     -121.070     273.393    -187.756
  H     -125.374     269.461    -191.630
  H     -120.742     274.325    -187.673
  H     -119.564     271.481    -193.548
  H     -121.040     270.401    -191.865
  H     -124.549     271.508    -191.385
  H     -123.112     269.195    -192.138
  H     -121.506     269.476    -190.314
  H     -123.932     270.169    -188.561
  H     -120.676     274.602    -195.198
  H     -122.294     271.620    -187.382
  H     -119.319     273.598    -194.888
  H     -121.844     269.899    -187.263
  P     -121.988     266.812    -190.155
  C     -119.784     267.581    -189.022
  O     -120.423     267.176    -190.220
  O     -122.491     266.950    -191.668
  O     -122.313     265.479    -189.567
  H     -123.212     266.318    -191.848
  H     -118.703     267.560    -189.179
  H     -120.036     266.906    -188.202
  H     -120.077     268.604    -188.769
  H     -118.364     270.758    -185.201
  H     -117.580     271.179    -186.704
  H     -118.842     269.971    -186.686

 3  4  5  6  7  8  9  10  11  12  13  23  27  28  29  30  32 0
 6-311+G(2d,p)
 ****
 34  35 0
 6-311+G(2d,p)
 ****
 1  2  14  15  16  17  18  19  20  21  22  24  25  26 0
 3-21G
 ****
 31  33  36  37  38  39  40  41  42  43  44  45  46 0
 3-21G
 ****


