%nproc=1
%NoSave
%Mem=1900MB
#P OB98/GEN NMR

erre ene a

0 1
  C      101.111     347.137     516.595
  O      102.099     348.106     516.316
  H      101.603     346.219     516.922
  H      100.538     346.921     515.689
  H      100.440     347.476     517.389
  P      101.655     349.629     516.089
  C      101.517     349.780     513.515
  O      100.798     349.643     514.732
  C      100.764     350.710     512.560
  O      100.818     352.065     513.103
  C      101.367     350.750     511.140
  O      100.303     350.930     510.200
  C      102.217     352.001     511.210
  O      102.516     352.506     509.933
  C      101.333     352.910     512.060
  N      102.083     354.049     512.581
  C      101.496     355.303     512.455
  O      100.403     355.490     511.923
  N      102.244     356.359     512.893
  C      103.533     356.299     513.333
  O      104.180     357.292     513.639
  C      104.124     354.952     513.396
  C      103.383     353.904     513.031
  O      102.748     350.643     516.143
  O      100.530     349.884     517.198
  H      103.077     353.301     510.013
  H      100.430     350.838     517.369
  H      101.825     357.275     512.816
  H      105.150     354.871     513.728
  H      103.790     352.901     513.049
  H      100.478     353.282     511.481
  H      103.163     351.785     511.716
  H      101.939     349.853     510.893
  H       99.709     350.417     512.536
  H      101.624     348.789     513.065
  H      102.514     350.185     513.726
  P      100.005     349.855     509.042
  C      101.278     351.201     507.260
  O      101.134     349.935     507.900
  O       98.607     349.896     508.515
  O      100.283     348.442     509.738
  H       99.557     347.828     509.518
  H      102.051     351.142     506.523
  H      101.535     351.942     507.988
  H      100.356     351.469     506.789

 6  7  8  9  10  11  12  13  14  15  16  26  31  32  33  34  35 0
 6-311+G(2d,p)
 ****
 36  37 0
 6-311+G(2d,p)
 ****
 1  2  3  4  5  17  18  19  20  21  22  23  24  25 0
 3-21G
 ****
 27  28  29  30  38  39  40  41  42  43  44  45 0
 3-21G
 ****


