%nproc=1
%NoSave
%Mem=1900MB
#P OB98/GEN NMR

erre ene a

0 1
  C     -133.260     243.583     506.629
  O     -132.655     243.550     507.923
  P     -131.158     243.077     508.211
  C     -131.940     241.077     509.720
  O     -131.151     242.248     509.584
  C     -132.461     240.864     511.156
  O     -133.622     241.706     511.383
  C     -132.934     239.421     511.347
  O     -131.995     238.399     511.661
  C     -134.089     239.521     512.332
  O     -133.683     239.317     513.684
  C     -134.596     240.954     512.133
  N     -139.686     241.017     512.645
  C     -138.713     240.868     513.619
  N     -139.143     240.658     514.874
  N     -137.430     240.904     513.364
  C     -137.136     241.032     512.054
  C     -138.012     241.165     510.996
  C     -139.433     241.189     511.290
  O     -140.332     241.333     510.470
  N     -137.352     241.253     509.800
  C     -136.073     241.145     510.126
  N     -135.893     241.012     511.488
  O     -130.105     244.118     508.046
  O     -130.905     241.945     507.092
  H     -134.471     239.073     514.200
  H     -129.953     241.991     506.852
  H     -140.663     241.012     512.897
  H     -135.252     241.157     509.426
  H     -134.707     241.469     513.097
  H     -134.847     238.754     512.117
  H     -140.109     240.502     515.114
  H     -133.381     239.104     510.396
  H     -138.445     240.334     515.550
  H     -131.710     241.175     511.893
  H     -131.314     240.237     509.416
  H     -132.785     241.111     509.027
  P     -132.184     236.836     511.399
  C     -131.416     236.113     513.734
  O     -131.160     236.048     512.340
  O     -131.565     236.608     509.941
  O     -133.602     236.352     511.457
  H     -131.860     235.755     509.573
  H     -130.506     235.816     514.274
  H     -132.221     235.428     513.996
  H     -131.692     237.130     514.033
  H     -134.266     243.938     506.714
  H     -133.264     242.598     506.212
  H     -132.703     244.238     505.992

 3  4  5  6  7  8  9  10  11  12  23  26  30  31 0
 6-311+G(2d,p)
 ****
 33  35  36  37  38 0
 6-311+G(2d,p)
 ****
 1  2  13  14  15  16  17  18  19  20  21  22  24  25 0
 3-21G
 ****
 27  28  29  32  34  39  40  41  42  43  44  45  46  47  48  49 0
 3-21G
 ****


