%nproc=1
%NoSave
%Mem=1900MB
#P OB98/GEN NMR

erre ene a

0 1
  C     -188.754     332.148     -97.871
  O     -188.803     330.730     -97.849
  P     -187.659     329.862     -97.129
  C     -188.274     330.013     -94.623
  O     -187.479     330.517     -95.678
  C     -187.682     330.405     -93.270
  O     -188.628     330.059     -92.226
  C     -186.352     329.715     -92.938
  O     -185.558     330.652     -92.201
  C     -186.779     328.563     -92.052
  O     -185.726     328.080     -91.232
  C     -187.941     329.206     -91.286
  N     -188.849     328.217     -90.713
  C     -188.360     327.405     -89.688
  O     -187.195     327.504     -89.303
  N     -189.208     326.489     -89.118
  C     -190.406     326.335     -89.586
  N     -191.226     325.457     -88.948
  C     -190.925     327.098     -90.736
  C     -190.112     328.027     -91.229
  O     -186.398     329.719     -97.912
  O     -188.374     328.478     -96.782
  H     -186.102     327.449     -90.590
  H     -188.358     327.835     -97.534
  H     -191.925     326.918     -91.107
  H     -190.415     328.651     -92.055
  H     -187.558     329.861     -90.494
  H     -187.130     327.732     -92.674
  H     -185.801     329.402     -93.832
  H     -187.560     331.496     -93.249
  H     -190.894     325.085     -88.064
  H     -188.292     328.920     -94.694
  H     -192.233     325.523     -89.036
  H     -189.302     330.381     -94.724
  P     -183.987     330.359     -92.041
  C     -183.551     331.883     -94.094
  O     -183.279     330.659     -93.446
  O     -183.961     328.753     -91.993
  O     -183.330     330.915     -90.821
  H     -183.165     328.464     -91.506
  H     -182.982     331.920     -95.026
  H     -183.245     332.727     -93.468
  H     -184.615     331.965     -94.331
  H     -189.605     332.526     -98.397
  H     -187.860     332.466     -98.364
  H     -188.760     332.521     -96.868

 3  4  5  6  7  8  9  10  11  12  13  23  27  28  29  30  32 0
 6-311+G(2d,p)
 ****
 34  35 0
 6-311+G(2d,p)
 ****
 1  2  14  15  16  17  18  19  20  21  22  24  25  26 0
 3-21G
 ****
 31  33  36  37  38  39  40  41  42  43  44  45  46 0
 3-21G
 ****


