%nproc=1
%NoSave
%Mem=1900MB
#P OB98/GEN NMR

erre ene a

0 1
  C      119.132    -322.339      25.715
  O      119.640    -323.510      25.075
  P      120.479    -324.570      25.941
  C      122.718    -323.310      25.852
  O      121.675    -323.798      26.685
  C      123.960    -322.893      26.654
  O      125.087    -322.648      25.771
  C      123.767    -321.633      27.507
  O      124.527    -321.816      28.707
  C      124.388    -320.556      26.636
  O      124.708    -319.381      27.369
  C      125.578    -321.325      26.055
  N      126.133    -320.686      24.872
  C      126.818    -319.485      25.052
  O      126.846    -318.954      26.165
  N      127.427    -318.904      23.968
  C      127.230    -319.403      22.787
  N      127.867    -318.810      21.737
  C      126.362    -320.569      22.534
  C      125.875    -321.168      23.613
  O      120.886    -325.811      25.218
  O      119.478    -324.912      27.147
  H      124.947    -318.669      26.741
  H      119.597    -325.851      27.396
  H      126.167    -320.897      21.526
  H      125.232    -322.035      23.535
  H      126.379    -321.429      26.802
  H      123.686    -320.276      25.839
  H      122.723    -321.440      27.769
  H      124.235    -323.734      27.303
  H      128.438    -317.997      21.921
  H      122.351    -322.448      25.286
  H      127.806    -319.169      20.791
  H      122.965    -324.075      25.108
  P      123.761    -321.822      30.117
  C      124.199    -319.302      30.586
  O      123.250    -320.332      30.406
  O      124.984    -321.958      31.149
  O      122.785    -322.932      30.333
  H      124.656    -322.356      31.977
  H      123.694    -318.336      30.490
  H      124.993    -319.355      29.835
  H      124.638    -319.372      31.586
  H      118.601    -321.744      25.001
  H      119.945    -321.772      26.118
  H      118.469    -322.624      26.505

 3  4  5  6  7  8  9  10  11  12  13  23  27  28  29  30  32 0
 6-311+G(2d,p)
 ****
 34  35 0
 6-311+G(2d,p)
 ****
 1  2  14  15  16  17  18  19  20  21  22  24  25  26 0
 3-21G
 ****
 31  33  36  37  38  39  40  41  42  43  44  45  46 0
 3-21G
 ****


