%nproc=1
%NoSave
%Mem=1900MB
#P OB98/GEN NMR

erre ene a

0 1
  C      602.281     742.813    -765.328
  O      602.508     744.043    -765.990
  P      601.423     744.771    -766.910
  C      601.516     746.942    -765.482
  O      600.714     745.912    -766.021
  C      601.426     748.251    -766.271
  O      600.048     748.671    -766.358
  C      602.166     749.367    -765.517
  O      603.563     749.517    -765.646
  C      601.356     750.631    -765.796
  O      601.916     751.416    -766.852
  C      599.982     750.096    -766.210
  N      595.927     753.013    -765.296
  C      596.584     752.760    -766.490
  N      596.200     753.550    -767.539
  N      597.498     751.871    -766.631
  C      597.835     751.227    -765.489
  C      597.254     751.358    -764.255
  C      596.191     752.336    -764.101
  O      595.660     752.640    -763.040
  N      597.899     750.616    -763.296
  C      598.889     750.035    -763.949
  N      598.919     750.412    -765.272
  O      600.584     743.887    -767.776
  O      602.364     745.644    -767.883
  H      602.788     751.724    -766.570
  H      601.932     745.689    -768.759
  H      595.264     753.774    -765.211
  H      599.627     749.386    -763.509
  H      599.683     750.513    -767.187
  H      601.327     751.282    -764.912
  H      595.604     754.350    -767.414
  H      602.026     749.175    -764.452
  H      596.778     753.514    -768.374
  H      601.760     748.114    -767.302
  H      602.534     746.572    -765.446
  H      601.197     747.136    -764.443
  P      604.633     749.633    -764.465
  C      604.448     747.118    -764.056
  O      604.421     748.410    -763.465
  O      604.113     750.894    -763.599
  O      606.041     749.849    -764.911
  H      604.846     751.271    -763.084
  H      603.995     746.395    -763.367
  H      605.490     746.813    -764.252
  H      603.877     747.104    -764.996
  H      603.156     742.537    -764.778
  H      602.060     742.055    -766.050
  H      601.455     742.917    -764.655

 3  4  5  6  7  8  9  10  11  12  23  26  30  31 0
 6-311+G(2d,p)
 ****
 33  35  36  37  38 0
 6-311+G(2d,p)
 ****
 1  2  13  14  15  16  17  18  19  20  21  22  24  25 0
 3-21G
 ****
 27  28  29  32  34  39  40  41  42  43  44  45  46  47  48  49 0
 3-21G
 ****


