%nproc=1
%NoSave
%Mem=1900MB
#P OB98/GEN NMR

erre ene a

0 1
  C      144.045     529.006     263.221
  O      143.844     527.602     263.381
  P      144.097     526.638     262.126
  C      142.743     525.629     260.176
  O      142.750     526.562     261.256
  C      141.748     526.061     259.078
  O      140.390     526.128     259.639
  C      142.072     527.439     258.473
  O      142.115     527.430     257.050
  C      141.040     528.365     259.110
  O      140.796     529.524     258.325
  C      139.843     527.417     259.325
  N      138.961     527.913     260.387
  C      138.398     529.166     260.195
  O      138.667     529.886     259.238
  N      137.551     529.609     261.185
  C      137.275     528.967     262.348
  O      136.543     529.411     263.230
  C      137.939     527.654     262.545
  C      138.750     527.211     261.566
  O      144.718     525.302     262.447
  O      145.073     527.495     261.185
  H      140.069     530.033     258.735
  H      145.728     526.884     260.789
  H      137.128     530.516     261.031
  H      137.778     527.130     263.457
  H      139.269     526.260     261.666
  H      139.249     527.329     258.411
  H      141.414     528.685     260.081
  H      143.076     527.766     258.774
  H      141.749     525.284     258.296
  H      142.446     524.637     260.538
  H      143.758     525.503     259.779
  P      143.305     528.052     256.161
  C      143.951     530.395     255.260
  O      143.024     529.620     255.991
  O      143.624     527.321     254.904
  O      144.563     527.996     257.175
  H      145.353     527.739     256.671
  H      143.840     531.444     255.543
  H      143.743     530.282     254.188
  H      144.997     530.084     255.459
  H      143.835     529.504     264.145
  H      143.390     529.376     262.460
  H      145.060     529.191     262.938

 3  4  5  6  7  8  9  10  11  12  13  23  28  29  30  31  32 0
 6-311+G(2d,p)
 ****
 33  34 0
 6-311+G(2d,p)
 ****
 1  2  14  15  16  17  18  19  20  21  22  24  25  26  27 0
 3-21G
 ****
 35  36  37  38  39  40  41  42  43  44  45 0
 3-21G
 ****


