%nproc=1
%NoSave
%Mem=1900MB
#P OB98/GEN NMR

erre ene a

0 1
  C        4.114       6.045       4.375
  O        4.883       6.726       5.355
  P        6.343       6.150       5.690
  C        7.415       7.511       3.770
  O        7.186       6.223       4.325
  C        8.900       7.854       3.789
  O        9.619       6.878       2.987
  C        9.234       9.246       3.229
  O       10.205       9.876       4.076
  C        9.908       8.943       1.903
  O       10.787       9.987       1.499
  C       10.600       7.622       2.239
  N       14.098       7.364      -1.394
  C       14.081       8.117      -0.237
  N       15.119       8.963      -0.055
  N       13.133       8.053       0.659
  C       12.174       7.142       0.360
  C       12.085       6.331      -0.747
  C       13.111       6.458      -1.760
  O       13.135       5.884      -2.847
  N       10.976       5.526      -0.688
  C       10.393       5.850       0.450
  N       11.057       6.861       1.099
  O        6.071       4.585       5.887
  O        7.000       6.740       6.889
  H       11.287       9.659       0.728
  H        6.390       4.303       6.766
  H       14.844       7.466      -2.059
  H        9.480       5.408       0.826
  H       11.465       7.798       2.891
  H        9.142       8.813       1.131
  H       15.900       9.036      -0.687
  H        8.366       9.903       3.112
  H       15.136       9.508       0.798
  H        9.268       7.753       4.818
  H        6.867       8.257       4.354
  H        7.040       7.524       2.742
  P       10.276      11.478       3.995
  C        7.739      11.891       4.410
  O        8.827      11.954       3.509
  O       11.211      11.742       2.724
  O       10.798      12.125       5.234
  H       11.638      12.616       2.791
  H        8.060      11.660       5.430
  H        7.044      11.117       4.075
  H        7.224      12.855       4.412
  H        3.171       6.537       4.256
  H        3.952       5.034       4.687
  H        4.639       6.051       3.443

 3  4  5  6  7  8  9  10  11  12  23  26  30  31  33  0
 6-311+G(2d,p)
 ****
 35  36  37  38 0
 6-311+G(2d,p)
 ****
 1  2  13  14  15  16  17  18  19  20  21  22  24  25  27  28  29 0
 3-21G
 ****
 32  34  39  40  41  42  43  44  45  46  47  48  49 0
 3-21G
 ****


