%nproc=1
%NoSave
%Mem=1900MB
#P OB98/GEN NMR

erre ene a

0 1
  C       55.819      -1.590      34.756
  O       56.790      -1.178      35.698
  H       55.644      -2.666      34.841
  H       54.883      -1.064      34.964
  H       56.145      -1.342      33.741
  P       58.255      -1.819      35.544
  C       57.487      -3.655      37.212
  O       58.115      -3.360      35.972
  C       57.138      -5.139      37.284
  O       56.163      -5.472      36.275
  C       58.315      -6.082      37.042
  O       59.118      -6.230      38.205
  C       57.579      -7.372      36.709
  O       57.118      -7.997      37.922
  C       56.381      -6.856      35.894
  N       55.638      -9.651      31.671
  C       55.240      -9.825      32.950
  N       55.459      -9.027      34.016
  C       56.155      -7.937      33.654
  C       56.612      -7.608      32.388
  C       56.332      -8.525      31.360
  N       56.806      -8.369      30.065
  N       57.303      -6.412      32.411
  C       57.281      -6.037      33.673
  N       56.594      -6.921      34.460
  O       59.061      -1.155      36.761
  O       58.924      -1.568      34.233
  H       56.612      -8.788      37.656
  H       59.566      -0.388      36.431
  H       54.673     -10.730      33.147
  H       57.750      -5.141      34.060
  H       55.460      -7.404      36.123
  H       58.205      -8.102      36.187
  H       58.909      -5.774      36.174
  H       56.680      -5.331      38.264
  H       56.569      -3.064      37.306
  H       56.953      -9.248      29.579
  H       57.528      -7.665      29.967
  H       58.169      -3.385      38.023
  P       60.711      -6.136      38.023
  C       60.999      -8.683      37.670
  O       61.142      -7.385      37.107
  O       61.257      -6.525      39.479
  O       61.228      -4.807      37.591
  H       61.833      -5.813      39.815
  H       61.319      -9.417      36.960
  H       59.972      -8.852      37.920
  H       61.598      -8.756      38.554

 6  7  8  9  10  11  12  13  14  15  25  28  32  33  34  35 0
 6-311+G(2d,p)
 ****
 36  39  40 0
 6-311+G(2d,p)
 ****
 1  2  3  4  5  16  17  18  19  20  21  22  23  24 0
 3-21G
 ****
 26  27  29  30  31  37  38  41  42  43  44  45  46  47  48 0
 3-21G
 ****


