%nproc=1
%NoSave
%Mem=1900MB
#P OB98/GEN NMR

erre ene a

0 1
  C     -364.594    -554.849     -53.188
  O     -363.759    -555.285     -54.245
  H     -364.930    -555.725     -52.620
  H     -365.473    -554.328     -53.580
  H     -364.040    -554.188     -52.514
  P     -363.199    -554.195     -55.274
  C     -365.334    -554.058     -56.732
  O     -364.474    -553.386     -55.817
  C     -365.201    -553.456     -58.134
  O     -366.056    -554.157     -59.058
  C     -365.604    -551.990     -58.220
  O     -364.593    -551.161     -57.667
  C     -365.807    -551.847     -59.722
  O     -364.547    -551.724     -60.406
  C     -366.482    -553.200     -60.064
  N     -367.940    -553.124     -60.124
  C     -368.485    -552.837     -61.380
  O     -367.750    -552.641     -62.350
  N     -369.857    -552.754     -61.492
  C     -370.611    -552.978     -60.465
  N     -371.956    -552.883     -60.646
  C     -370.075    -553.330     -59.133
  C     -368.747    -553.368     -59.033
  O     -362.287    -554.706     -56.350
  O     -362.461    -553.122     -54.343
  H     -364.104    -552.592     -60.306
  H     -361.507    -553.329     -54.269
  H     -370.743    -553.520     -58.301
  H     -368.270    -553.613     -58.087
  H     -366.121    -553.577     -61.032
  H     -366.403    -550.962     -59.979
  H     -366.563    -551.824     -57.724
  H     -364.164    -553.605     -58.464
  H     -372.279    -552.665     -61.584
  H     -366.358    -553.932     -56.362
  H     -372.636    -553.202     -59.966
  H     -365.109    -555.130     -56.758
  P     -364.674    -550.640     -56.152
  C     -364.591    -548.222     -57.040
  O     -365.299    -549.161     -56.233
  O     -363.407    -550.743     -55.374
  O     -365.881    -551.484     -55.525
  H     -365.587    -552.405     -55.311
  H     -365.097    -547.280     -57.018
  H     -364.547    -548.579     -58.048
  H     -363.598    -548.103     -56.660

 6  7  8  9  10  11  12  13  14  15  16  26  30  31  32  33  35 0
 6-311+G(2d,p)
 ****
 37  38 0
 6-311+G(2d,p)
 ****
 1  2  3  4  5  17  18  19  20  21  22  23  24  25 0
 3-21G
 ****
 27  28  29  34  36  39  40  41  42  43  44  45  46 0
 3-21G
 ****


