%nproc=1
%NoSave
%Mem=1900MB
#P OB98/GEN NMR

erre ene a

0 1
  C     -315.912    -448.578      65.667
  O     -316.546    -448.145      66.871
  P     -317.592    -446.932      66.810
  C     -316.077    -445.065      67.727
  O     -316.787    -445.555      66.597
  C     -315.810    -443.553      67.642
  O     -314.826    -443.256      66.618
  C     -317.059    -442.707      67.334
  O     -316.920    -441.480      68.060
  C     -316.919    -442.471      65.845
  O     -317.715    -441.380      65.397
  C     -315.410    -442.280      65.728
  N     -314.919    -442.441      64.361
  C     -314.631    -441.269      63.650
  O     -314.883    -440.174      64.143
  N     -314.091    -441.394      62.394
  C     -313.996    -442.560      61.839
  N     -313.440    -442.639      60.599
  C     -314.469    -443.804      62.500
  C     -314.885    -443.665      63.751
  O     -318.609    -446.902      67.900
  O     -318.300    -447.145      65.381
  H     -318.668    -441.632      65.457
  H     -319.237    -446.872      65.442
  H     -314.442    -444.745      61.970
  H     -315.243    -444.517      64.316
  H     -315.106    -441.291      66.093
  H     -317.235    -443.365      65.295
  H     -317.995    -443.196      67.618
  H     -315.380    -443.239      68.606
  H     -313.144    -441.780      60.154
  H     -315.120    -445.594      67.804
  H     -313.288    -443.522      60.124
  H     -316.640    -445.314      68.639
  P     -317.770    -441.282      69.408
  C     -319.280    -439.361      68.504
  O     -319.200    -440.684      69.013
  O     -317.046    -439.993      70.059
  O     -317.748    -442.415      70.377
  H     -317.185    -440.005      71.023
  H     -320.255    -439.228      68.023
  H     -318.501    -439.178      67.749
  H     -319.180    -438.648      69.316
  H     -315.250    -449.390      65.885
  H     -315.356    -447.767      65.245
  H     -316.655    -448.902      64.969

 3  4  5  6  7  8  9  10  11  12  13  23  27  28  29  30  32 0
 6-311+G(2d,p)
 ****
 34  35 0
 6-311+G(2d,p)
 ****
 1  2  14  15  16  17  18  19  20  21  22  24  25  26 0
 3-21G
 ****
 31  33  36  37  38  39  40  41  42  43  44  45  46 0
 3-21G
 ****


