%nproc=1
%NoSave
%Mem=1900MB
#P OB98/GEN NMR

erre ene a

0 1
  C     -417.215     880.531    -705.835
  O     -416.431     879.346    -705.752
  P     -416.261     878.450    -707.089
  C     -413.709     879.029    -707.239
  O     -414.977     878.995    -707.888
  C     -412.706     879.854    -708.052
  O     -413.037     881.259    -708.042
  C     -411.276     879.778    -707.499
  O     -410.615     878.598    -707.959
  C     -410.646     881.018    -708.162
  O     -410.322     880.733    -709.512
  C     -411.808     882.028    -708.100
  N     -409.238     885.842    -705.841
  C     -408.996     885.138    -706.972
  N     -409.715     884.125    -707.505
  C     -410.791     883.872    -706.739
  C     -411.165     884.497    -705.551
  C     -410.328     885.528    -705.104
  N     -410.570     886.231    -703.944
  N     -412.325     883.941    -705.052
  C     -412.666     883.011    -705.911
  N     -411.761     882.923    -706.948
  O     -417.497     878.913    -707.986
  O     -416.281     876.980    -706.833
  H     -409.802     881.478    -709.857
  H     -417.812     878.171    -708.518
  H     -408.103     885.437    -707.542
  H     -413.554     882.387    -705.837
  H     -411.861     882.660    -708.997
  H     -409.735     881.334    -707.652
  H     -411.261     879.884    -706.409
  H     -412.720     879.494    -709.093
  H     -413.347     878.009    -707.094
  H     -409.946     886.981    -703.712
  H     -411.398     886.028    -703.407
  H     -413.849     879.450    -706.230
  P     -410.811     877.285    -707.071
  C     -412.048     875.980    -708.968
  O     -412.104     876.542    -707.664
  O     -411.290     877.844    -705.645
  O     -409.582     876.434    -706.953
  H     -411.009     877.251    -704.933
  H     -412.891     875.281    -709.098
  H     -411.106     875.446    -709.117
  H     -412.129     876.784    -709.727
  H     -417.235     881.013    -704.880
  H     -418.213     880.279    -706.128
  H     -416.787     881.192    -706.559

 3  4  5  6  7  8  9  10  11  12  22  25  29  30  31  32 0
 6-311+G(2d,p)
 ****
 33  36  37 0
 6-311+G(2d,p)
 ****
 1  2  13  14  15  16  17  18  19  20  21  23  24  26 0
 3-21G
 ****
 27  28  34  35  38  39  40  41  42  43  44  45  46  47  48 0
 3-21G
 ****


