%nproc=1
%NoSave
%Mem=1900MB
#P OB98/GEN NMR

erre ene a

0 1
  C     -389.212     168.277      94.863
  O     -389.521     166.916      94.619
  P     -390.828     166.244      95.263
  C     -392.536     166.729      93.400
  O     -392.087     167.071      94.707
  C     -394.060     166.783      93.317
  O     -394.458     166.631      91.934
  C     -394.750     165.684      94.116
  O     -395.957     166.207      94.677
  C     -395.120     164.637      93.077
  O     -396.250     163.857      93.504
  C     -395.363     165.514      91.848
  N     -397.118     164.475      87.135
  C     -397.604     165.261      88.121
  N     -397.097     165.471      89.355
  C     -395.941     164.810      89.509
  C     -395.323     163.971      88.595
  C     -395.962     163.809      87.355
  N     -395.455     163.014      86.344
  N     -394.158     163.440      89.123
  C     -394.072     163.969      90.328
  N     -395.119     164.808      90.604
  O     -390.793     166.094      96.744
  O     -390.965     164.835      94.523
  H     -396.314     163.090      92.895
  H     -391.268     164.150      95.152
  H     -398.520     165.792      87.884
  H     -393.285     163.765      91.038
  H     -396.390     165.907      91.824
  H     -394.278     163.955      92.929
  H     -394.115     165.274      94.912
  H     -394.391     167.772      93.648
  H     -392.197     165.710      93.177
  H     -395.918     163.058      85.452
  H     -394.514     162.661      86.445
  H     -392.082     167.407      92.673
  P     -396.338     165.670      96.148
  C     -395.826     168.054      97.070
  O     -395.584     166.664      97.148
  O     -396.074     164.211      96.304
  O     -397.887     166.082      96.235
  H     -398.092     166.840      95.639
  H     -395.193     168.559      97.805
  H     -396.872     168.265      97.306
  H     -395.585     168.425      96.072
  H     -388.309     168.535      94.350
  H     -389.082     168.430      95.914
  H     -390.012     168.893      94.509

 3  4  5  6  7  8  9  10  11  12  22  25  29  30  31  32 0
 6-311+G(2d,p)
 ****
 33  36  37 0
 6-311+G(2d,p)
 ****
 1  2  13  14  15  16  17  18  19  20  21  23  24  26 0
 3-21G
 ****
 27  28  34  35  38  39  40  41  42  43  44  45  46  47  48 0
 3-21G
 ****


