%nproc=1
%NoSave
%Mem=1900MB
#P OB98/GEN NMR

erre ene a

0 1
  C      -95.640     586.080     375.648
  O      -94.464     586.851     375.568
  H      -96.029     585.872     374.647
  H      -95.399     585.123     376.129
  H      -96.392     586.598     376.248
  P      -94.585     588.282     374.845
  C      -94.615     586.834     372.690
  O      -95.079     588.018     373.332
  C      -94.785     586.966     371.188
  O      -93.953     588.091     370.732
  C      -94.352     585.711     370.372
  O      -95.455     585.250     369.582
  C      -93.262     586.202     369.440
  O      -93.354     585.661     368.122
  C      -93.457     587.729     369.426
  N      -89.986     588.591     365.809
  C      -91.270     588.197     365.737
  N      -92.177     588.093     366.728
  C      -91.641     588.471     367.899
  C      -90.353     588.921     368.137
  C      -89.485     588.960     367.027
  N      -88.149     589.309     367.123
  N      -90.157     589.193     369.482
  C      -91.306     588.890     370.051
  N      -92.223     588.419     369.145
  O      -93.059     588.738     374.667
  O      -95.378     589.299     375.599
  H      -92.672     586.112     367.585
  H      -92.957     589.664     374.978
  H      -91.616     587.919     364.737
  H      -91.534     588.938     371.114
  H      -94.213     588.038     368.679
  H      -92.286     585.946     369.860
  H      -93.986     584.908     371.014
  H      -95.815     587.229     370.957
  H      -95.194     585.975     373.041
  H      -87.590     589.197     366.292
  H      -87.756     589.482     368.032
  H      -93.564     586.674     372.970
  P      -96.202     583.920     370.089
  C      -94.398     582.143     369.466
  O      -95.070     582.865     370.508
  O      -96.801     583.305     368.740
  O      -97.261     584.174     371.111
  H      -97.598     582.770     368.943
  H      -93.676     581.482     369.898
  H      -93.904     582.834     368.815
  H      -95.112     581.575     368.908

 6  7  8  9  10  11  12  13  14  15  25  28  32  33  34  35 0
 6-311+G(2d,p)
 ****
 36  39  40 0
 6-311+G(2d,p)
 ****
 1  2  3  4  5  16  17  18  19  20  21  22  23  24 0
 3-21G
 ****
 26  27  29  30  31  37  38  41  42  43  44  45  46  47  48 0
 3-21G
 ****


