%nproc=1
%NoSave
%Mem=1900MB
#P OB98/GEN NMR

erre ene a

0 1
  C      -33.614      74.446     101.967
  O      -34.306      74.439     103.217
  P      -35.310      73.240     103.556
  C      -33.984      71.186     104.401
  O      -34.704      72.362     104.752
  C      -33.763      70.316     105.642
  O      -33.224      69.019     105.291
  C      -32.746      70.909     106.608
  O      -33.131      72.077     107.301
  C      -32.352      69.702     107.442
  O      -33.286      69.462     108.494
  C      -32.410      68.567     106.394
  N      -31.083      68.150     105.939
  C      -30.587      66.978     106.499
  O      -31.182      66.334     107.360
  N      -29.350      66.585     106.060
  C      -28.569      67.253     105.163
  O      -27.458      66.867     104.822
  C      -29.138      68.497     104.624
  C      -30.350      68.884     105.029
  O      -35.809      72.462     102.385
  O      -36.532      73.999     104.277
  H      -33.115      68.565     108.837
  H      -37.363      73.596     103.957
  H      -28.977      65.733     106.449
  H      -28.544      69.057     103.914
  H      -30.788      69.798     104.643
  H      -32.911      67.684     106.812
  H      -31.372      69.838     107.910
  H      -31.857      71.193     106.026
  H      -34.727      70.152     106.127
  H      -33.026      71.459     103.954
  H      -34.543      70.645     103.630
  P      -32.148      73.319     107.544
  C      -32.240      74.844     105.450
  O      -32.725      74.585     106.748
  O      -30.681      73.063     107.449
  O      -32.498      73.705     109.066
  H      -31.689      74.044     109.492
  H      -32.727      75.746     105.069
  H      -32.474      74.012     104.782
  H      -31.160      75.013     105.472
  H      -32.991      75.314     101.909
  H      -34.324      74.463     101.166
  H      -33.009      73.567     101.889

 3  4  5  6  7  8  9  10  11  12  13  23  28  29  30  31  32 0
 6-311+G(2d,p)
 ****
 33  34 0
 6-311+G(2d,p)
 ****
 1  2  14  15  16  17  18  19  20  21  22  24  25  26  27 0
 3-21G
 ****
 35  36  37  38  39  40  41  42  43  44  45 0
 3-21G
 ****


