%nproc=1
%NoSave
%Mem=1900MB
#P OB98/GEN NMR

erre ene a

0 1
  C      132.892    -321.216    -306.187
  O      133.567    -322.452    -306.280
  H      133.136    -320.758    -305.223
  H      131.812    -321.373    -306.236
  H      133.208    -320.539    -306.983
  P      133.516    -323.261    -307.662
  C      131.992    -325.124    -306.730
  O      132.134    -324.070    -307.681
  C      130.567    -325.657    -306.748
  O      129.648    -324.650    -306.267
  C      130.065    -326.029    -308.139
  O      130.621    -327.253    -308.585
  C      128.566    -326.045    -307.908
  O      128.144    -327.290    -307.327
  C      128.375    -324.886    -306.907
  N      127.874    -323.674    -307.556
  C      126.536    -323.691    -307.944
  O      125.788    -324.653    -307.761
  N      126.095    -322.580    -308.619
  C      126.886    -321.552    -309.049
  O      126.511    -320.708    -309.863
  C      128.276    -321.553    -308.560
  C      128.703    -322.609    -307.854
  O      134.731    -324.066    -307.990
  O      133.268    -322.108    -308.759
  H      134.112    -321.909    -309.207
  H      128.432    -327.991    -307.954
  H      125.144    -322.606    -308.942
  H      128.907    -320.721    -308.818
  H      129.731    -322.645    -307.508
  H      127.671    -325.173    -306.115
  H      128.011    -325.911    -308.841
  H      130.305    -325.224    -308.848
  H      130.506    -326.529    -306.071
  H      132.223    -324.726    -305.733
  H      132.708    -325.916    -306.971
  P      130.583    -327.642    -310.143
  C      128.322    -328.866    -310.045
  O      129.046    -327.764    -310.592
  O      131.443    -328.794    -310.534
  O      131.058    -326.294    -310.889
  H      131.770    -326.526    -311.516
  H      127.316    -328.848    -310.410
  H      128.316    -328.794    -308.977
  H      128.791    -329.782    -310.338

 6  7  8  9  10  11  12  13  14  15  16  27  31  32  33  34  35 0
 6-311+G(2d,p)
 ****
 36  37 0
 6-311+G(2d,p)
 ****
 1  2  3  4  5  17  18  19  20  21  22  23  24  25 0
 3-21G
 ****
 26  28  29  30  38  39  40  41  42  43  44  45 0
 3-21G
 ****


