%nproc=1
%NoSave
%Mem=1900MB
#P OB98/GEN NMR

erre ene a

0 1
  C     -961.609    -291.340    1903.619
  O     -960.857    -291.056    1902.456
  H     -961.098    -290.909    1904.487
  H     -961.678    -292.420    1903.761
  H     -962.616    -290.914    1903.546
  P     -961.482    -291.532    1901.056
  C     -960.396    -289.963    1899.308
  O     -961.529    -290.230    1900.118
  C     -959.687    -288.693    1899.759
  O     -959.300    -288.842    1901.161
  C     -958.409    -288.336    1898.971
  O     -958.333    -286.909    1898.867
  C     -957.305    -288.833    1899.880
  O     -956.061    -288.197    1899.613
  C     -957.890    -288.488    1901.246
  N     -953.990    -288.270    1904.410
  C     -954.428    -287.366    1903.466
  N     -953.705    -286.233    1903.338
  N     -955.476    -287.556    1902.703
  C     -956.114    -288.729    1902.964
  C     -955.793    -289.702    1903.867
  C     -954.591    -289.494    1904.680
  O     -954.161    -290.259    1905.532
  N     -956.659    -290.752    1903.807
  C     -957.537    -290.418    1902.869
  N     -957.234    -289.185    1902.321
  O     -963.017    -291.798    1901.426
  O     -960.843    -292.738    1900.451
  H     -955.927    -288.178    1898.637
  H     -963.158    -292.729    1901.656
  H     -953.173    -288.076    1904.967
  H     -958.368    -290.999    1902.547
  H     -957.831    -287.415    1901.467
  H     -957.172    -289.911    1899.767
  H     -952.940    -285.990    1903.908
  H     -958.374    -288.784    1897.968
  H     -954.047    -285.537    1902.674
  H     -960.417    -287.857    1899.724
  H     -960.726    -289.831    1898.265
  H     -959.697    -290.817    1899.346
  P     -959.576    -286.128    1898.238
  C     -960.143    -284.095    1899.775
  O     -960.404    -285.456    1899.426
  O     -960.532    -287.310    1897.760
  O     -959.204    -285.201    1897.110
  H     -961.064    -287.014    1896.980
  H     -960.780    -283.806    1900.584
  H     -960.333    -283.467    1898.930
  H     -959.120    -283.993    1900.072

 6  7  8  9  10  11  12  13  14  15  26  29  33  34 0
 6-311+G(2d,p)
 ****
 36  38  39  40  41 0
 6-311+G(2d,p)
 ****
 1  2  3  4  5  16  17  18  19  20  21  22  23  24  25 0
 3-21G
 ****
 27  28  30  31  32  35  37  42  43  44  45  46  47 0
 3-21G
 ****
 48  49 0
 3-21G
 ****


