%nproc=1
%NoSave
%Mem=1900MB
#P OB98/GEN NMR

erre ene a

0 1
  C      -53.295    -904.881     196.070
  O      -52.380    -903.834     196.357
  H      -53.576    -905.353     197.018
  H      -52.825    -905.637     195.434
  H      -54.195    -904.486     195.596
  P      -51.801    -902.977     195.128
  C      -50.445    -903.608     193.002
  O      -51.127    -904.077     194.165
  C      -49.206    -904.460     192.743
  O      -49.472    -905.858     192.950
  C      -48.663    -904.373     191.318
  O      -48.007    -903.155     191.026
  C      -47.713    -905.555     191.339
  O      -46.519    -905.209     192.069
  C      -48.552    -906.595     192.093
  N      -49.301    -907.497     191.207
  C      -48.575    -908.112     190.173
  O      -47.370    -907.896     190.043
  N      -49.242    -908.943     189.295
  C      -50.519    -909.114     189.423
  N      -51.135    -909.931     188.517
  C      -51.328    -908.458     190.477
  C      -50.659    -907.675     191.327
  O      -50.927    -901.817     195.494
  O      -53.100    -902.565     194.284
  H      -46.120    -904.443     191.609
  H      -52.788    -902.018     193.510
  H      -52.399    -908.618     190.520
  H      -51.191    -907.168     192.119
  H      -47.919    -907.208     192.759
  H      -47.402    -905.872     190.342
  H      -49.460    -904.575     190.589
  H      -48.441    -904.157     193.483
  H      -50.551    -910.361     187.803
  H      -50.184    -902.557     193.165
  H      -52.140    -910.067     188.490
  H      -51.113    -903.684     192.140
  P      -47.781    -902.802     189.471
  C      -46.397    -903.886     187.533
  O      -46.733    -903.896     188.910
  O      -46.926    -901.446     189.522
  O      -49.034    -902.676     188.659
  H      -47.517    -900.678     189.390
  H      -45.697    -904.669     187.331
  H      -45.960    -902.943     187.279
  H      -47.281    -904.038     186.949

 6  7  8  9  10  11  12  13  14  15  16  26  30  31  32  33  35 0
 6-311+G(2d,p)
 ****
 37  38 0
 6-311+G(2d,p)
 ****
 1  2  3  4  5  17  18  19  20  21  22  23  24  25 0
 3-21G
 ****
 27  28  29  34  36  39  40  41  42  43  44  45  46 0
 3-21G
 ****


