%nproc=1
%NoSave
%Mem=1900MB
#P OB98/GEN NMR

erre ene a

0 1
  C      541.063    -160.126    -277.813
  O      541.357    -158.742    -277.758
  P      542.002    -158.082    -276.433
  C      539.842    -156.769    -275.815
  O      540.744    -157.817    -275.461
  C      538.717    -156.702    -274.807
  O      537.971    -157.937    -274.817
  C      539.153    -156.480    -273.357
  O      539.544    -155.144    -273.125
  C      537.914    -156.958    -272.608
  O      536.914    -155.932    -272.595
  C      537.440    -158.136    -273.477
  N      537.848    -159.435    -272.937
  C      537.123    -159.910    -271.831
  O      536.203    -159.256    -271.351
  N      537.453    -161.149    -271.310
  C      538.424    -161.822    -271.830
  N      538.664    -163.065    -271.312
  C      539.258    -161.339    -272.959
  C      538.915    -160.155    -273.459
  O      542.851    -156.892    -276.685
  O      542.753    -159.287    -275.710
  H      536.119    -156.314    -272.179
  H      543.686    -159.409    -276.008
  H      540.055    -161.945    -273.342
  H      539.444    -159.745    -274.294
  H      536.357    -158.121    -273.572
  H      538.134    -157.243    -271.569
  H      540.000    -157.139    -273.130
  H      538.027    -155.889    -275.102
  H      537.970    -163.420    -270.657
  H      539.430    -156.989    -276.810
  H      539.192    -163.760    -271.829
  H      540.410    -155.821    -275.866
  P      540.250    -154.790    -271.743
  C      538.097    -153.671    -270.815
  O      539.065    -154.684    -270.657
  O      540.739    -153.287    -271.947
  O      541.380    -155.707    -271.372
  H      541.688    -153.262    -272.147
  H      537.258    -153.874    -270.149
  H      537.737    -153.637    -271.851
  H      538.543    -152.704    -270.531
  H      540.645    -160.364    -278.769
  H      540.360    -160.372    -277.045
  H      541.962    -160.688    -277.667

 3  4  5  6  7  8  9  10  11  12  13  23  27  28  29  30  32 0
 6-311+G(2d,p)
 ****
 34  35 0
 6-311+G(2d,p)
 ****
 1  2  14  15  16  17  18  19  20  21  22  24  25  26 0
 3-21G
 ****
 31  33  36  37  38  39  40  41  42  43  44  45  46 0
 3-21G
 ****


