%nproc=1
%NoSave
%Mem=1900MB
#P OB98/GEN NMR

erre ene a

0 1
  C      401.810     888.681     396.068
  O      401.049     888.259     397.188
  H      401.364     889.589     395.662
  H      401.802     887.904     395.296
  H      402.837     888.902     396.364
  P      401.572     886.946     397.949
  C      399.566     885.524     397.069
  O      400.983     885.690     397.144
  C      399.235     884.221     396.355
  O      399.568     884.335     394.953
  C      400.022     883.016     396.865
  O      399.494     882.495     398.076
  C      399.893     882.061     395.688
  O      398.641     881.340     395.734
  C      399.919     883.008     394.490
  N      402.254     883.379     389.960
  C      400.953     883.486     390.320
  N      400.406     883.394     391.548
  C      401.367     883.181     392.471
  C      402.731     883.059     392.255
  C      403.182     883.168     390.935
  N      404.496     883.024     390.558
  N      403.392     882.809     393.450
  C      402.445     882.797     394.368
  N      401.206     883.029     393.823
  O      400.711     886.954     399.310
  O      403.037     886.905     398.221
  H      398.720     880.644     395.052
  H      401.259     887.307     400.031
  H      400.252     883.675     389.509
  H      402.595     882.621     395.426
  H      399.169     882.722     393.730
  H      400.699     881.322     395.688
  H      401.079     883.282     396.990
  H      398.151     884.042     396.438
  H      399.127     886.361     396.525
  H      399.168     885.515     398.089
  H      404.734     883.055     389.590
  H      405.170     882.752     391.264
  P      400.436     881.523     398.944
  C      398.541     879.717     398.976
  O      399.919     880.028     398.702
  O      400.021     881.839     400.447
  O      401.892     881.726     398.711
  H      400.808     881.785     401.038
  H      398.360     878.684     398.764
  H      397.909     880.324     398.361
  H      398.329     879.912     400.007

 6  7  8  9  10  11  12  13  14  15  25  28  32  33  34  35 0
 6-311+G(2d,p)
 ****
 36  37  40 0
 6-311+G(2d,p)
 ****
 1  2  3  4  5  16  17  18  19  20  21  22  23  24 0
 3-21G
 ****
 26  27  29  30  31  38  39 41  42  43  44  45  46  47  48 0
 3-21G
 ****


