%nproc=1
%NoSave
%Mem=1900MB
#P OB98/GEN NMR

erre ene a

0 1
  C       -6.615     -40.346    -231.118
  O       -7.978     -40.575    -231.422
  H       -6.154     -39.811    -231.953
  H       -6.082     -41.291    -230.977
  H       -6.526     -39.734    -230.216
  P       -8.836     -41.481    -230.416
  C       -9.032     -43.893    -231.334
  O       -8.259     -42.967    -230.578
  C       -8.802     -43.671    -232.826
  O       -7.394     -43.715    -233.127
  C       -9.447     -44.740    -233.697
  O      -10.845     -44.542    -233.791
  C       -8.673     -44.562    -234.988
  O       -9.173     -43.454    -235.748
  C       -7.251     -44.270    -234.457
  N       -6.398     -45.454    -234.443
  C       -6.373     -46.207    -235.623
  O       -7.036     -45.859    -236.599
  N       -5.609     -47.347    -235.653
  C       -4.921     -47.696    -234.612
  N       -4.187     -48.836    -234.708
  C       -4.910     -46.925    -233.354
  C       -5.666     -45.828    -233.338
  O      -10.328     -41.383    -230.523
  O       -8.309     -41.041    -228.969
  H       -8.715     -43.498    -236.613
  H       -8.836     -40.297    -228.626
  H       -4.316     -47.251    -232.513
  H       -5.712     -45.202    -232.454
  H       -6.760     -43.502    -235.069
  H       -8.732     -45.450    -235.618
  H       -9.222     -45.735    -233.301
  H       -9.173     -42.672    -233.087
  H       -4.233     -49.342    -235.589
  H      -10.083     -43.719    -231.083
  H       -3.547     -49.160    -233.998
  H       -8.775     -44.924    -231.061
  P      -11.786     -45.662    -234.445
  C      -12.688     -45.189    -236.816
  O      -11.551     -45.542    -236.031
  O      -13.210     -45.635    -234.004
  O      -11.032     -47.028    -234.078
  H      -11.148     -47.259    -233.123
  H      -12.408     -45.141    -237.848
  H      -13.056     -44.235    -236.501
  H      -13.453     -45.926    -236.688

 6  7  8  9  10  11  12  13  14  15  16  26  30  31  32  33  35 0
 6-311+G(2d,p)
 ****
 37  38 0
 6-311+G(2d,p)
 ****
 1  2  3  4  5  17  18  19  20  21  22  23  24  25 0
 3-21G
 ****
 27  28  29  34  36  39  40  41  42  43  44  45  46 0
 3-21G
 ****


