%nproc=1
%NoSave
%Mem=1900MB
#P OB98/GEN NMR

erre ene a

0 1
  C     -489.353     246.584      34.758
  O     -489.919     247.008      33.533
  H     -489.693     247.253      35.551
  H     -488.263     246.639      34.696
  H     -489.660     245.566      35.003
  P     -489.826     246.046      32.258
  C     -492.138     246.714      31.330
  O     -490.733     246.710      31.115
  C     -492.861     247.508      30.238
  O     -492.635     248.934      30.465
  C     -492.380     247.190      28.814
  O     -493.493     247.369      27.933
  C     -491.341     248.275      28.588
  O     -491.051     248.431      27.212
  C     -492.026     249.461      29.275
  N     -491.086     250.549      29.571
  C     -491.226     251.715      28.825
  O     -492.066     251.844      27.937
  N     -490.339     252.718      29.106
  C     -489.311     252.645      30.000
  O     -488.523     253.557      30.182
  C     -489.178     251.368      30.723
  C     -490.060     250.396      30.487
  O     -490.109     244.603      32.520
  O     -488.342     246.272      31.700
  H     -490.479     249.209      27.072
  H     -488.021     245.457      31.271
  H     -490.437     253.569      28.583
  H     -488.366     251.276      31.425
  H     -489.993     249.444      31.006
  H     -492.825     249.870      28.637
  H     -490.408     248.029      29.095
  H     -491.974     246.179      28.712
  H     -493.942     247.342      30.338
  H     -492.331     247.170      32.309
  H     -492.507     245.684      31.343
  P     -494.038     246.198      26.982
  C     -496.090     245.452      28.356
  O     -495.627     246.080      27.164
  O     -493.308     244.898      27.136
  O     -493.864     246.768      25.495
  H     -493.743     246.032      24.871
  H     -497.160     245.435      28.358
  H     -495.740     245.999      29.206
  H     -495.718     244.450      28.399

 6  7  8  9  10  11  12  13  14  15  16  26  31  32  33  34  35 0
 6-311+G(2d,p)
 ****
 36  37 0
 6-311+G(2d,p)
 ****
 1  2  3  4  5  17  18  19  20  21  22  23  24  25 0
 3-21G
 ****
 27  28  29  30  38  39  40  41  42  43  44  45 0
 3-21G
 ****


