%nproc=1
%NoSave
%Mem=1900MB
#P OB98/GEN NMR

erre ene a

0 1
  C     -176.259     444.827    -787.154
  O     -175.719     443.633    -786.617
  H     -176.300     445.581    -786.359
  H     -177.275     444.642    -787.510
  H     -175.635     445.198    -787.963
  P     -175.410     442.446    -787.655
  C     -177.823     441.559    -787.133
  O     -176.845     441.882    -788.100
  C     -179.137     441.131    -787.812
  O     -178.810     440.415    -789.041
  C     -180.007     440.202    -786.949
  O     -181.384     440.517    -787.199
  C     -179.687     438.824    -787.486
  O     -180.732     437.896    -787.214
  C     -179.456     439.131    -788.983
  N     -178.660     438.097    -789.640
  C     -179.193     436.797    -789.638
  O     -180.272     436.573    -789.080
  N     -178.471     435.787    -790.215
  C     -177.296     436.034    -790.712
  N     -176.621     434.986    -791.254
  C     -176.680     437.378    -790.687
  C     -177.411     438.354    -790.171
  O     -174.829     441.309    -786.692
  O     -174.500     442.841    -788.777
  H     -180.376     436.980    -787.331
  H     -175.341     441.199    -785.875
  H     -175.679     437.527    -791.103
  H     -177.042     439.370    -790.125
  H     -180.423     439.219    -789.508
  H     -178.764     438.446    -787.034
  H     -179.791     440.308    -785.871
  H     -179.680     442.033    -788.101
  H     -177.070     434.070    -791.223
  H     -178.013     442.420    -786.480
  H     -175.676     435.045    -791.612
  H     -177.434     440.748    -786.512
  P     -182.111     441.652    -786.343
  C     -183.503     439.957    -784.962
  O     -182.563     441.027    -784.932
  O     -183.156     442.435    -787.048
  O     -180.883     442.609    -785.915
  H     -181.189     443.531    -785.985
  H     -183.714     439.639    -783.962
  H     -183.095     439.139    -785.518
  H     -184.407     440.289    -785.429

 6  7  8  9  10  11  12  13  14  15  16  26  30  31  32  33  35 0
 6-311+G(2d,p)
 ****
 37  38 0
 6-311+G(2d,p)
 ****
 1  2  3  4  5  17  18  19  20  21  22  23  24  25 0
 3-21G
 ****
 27  28  29  34  36  39  40  41  42  43  44  45  46 0
 3-21G
 ****


