%nproc=1
%NoSave
%Mem=1900MB
#P OB98/GEN NMR

erre ene a

0 1
  C      -53.079    -403.293     127.570
  O      -52.262    -404.447     127.410
  P      -51.294    -404.845     128.628
  C      -49.347    -404.261     127.012
  O      -49.897    -404.120     128.320
  C      -48.780    -402.934     126.525
  O      -49.720    -401.876     126.793
  C      -47.487    -402.511     127.200
  O      -46.360    -403.160     126.641
  C      -47.472    -401.019     126.891
  O      -46.960    -400.806     125.565
  C      -48.963    -400.655     126.963
  N      -48.110    -396.831     130.176
  C      -47.509    -397.123     128.969
  N      -46.562    -396.257     128.543
  N      -47.805    -398.168     128.244
  C      -48.795    -398.926     128.772
  C      -49.465    -398.740     129.960
  C      -49.093    -397.604     130.778
  O      -49.546    -397.331     131.891
  N      -50.417    -399.708     130.155
  C      -50.352    -400.454     129.067
  N      -49.358    -400.037     128.213
  O      -50.979    -406.388     128.345
  O      -51.866    -404.631     129.988
  H      -46.021    -401.062     125.575
  H      -50.748    -406.837     129.183
  H      -47.856    -396.004     130.683
  H      -50.990    -401.298     128.861
  H      -49.245    -399.981     126.140
  H      -46.831    -400.451     127.577
  H      -46.387    -395.369     128.988
  H      -47.542    -402.662     128.286
  H      -46.136    -396.431     127.642
  H      -48.646    -403.000     125.438
  H      -50.136    -404.591     126.325
  H      -48.568    -405.029     127.040
  P      -45.602    -404.228     127.577
  C      -43.456    -402.787     127.287
  O      -44.343    -403.442     128.177
  O      -44.957    -405.247     126.524
  O      -46.488    -404.910     128.565
  H      -44.834    -406.123     126.939
  H      -43.996    -402.354     126.433
  H      -42.718    -403.503     126.923
  H      -42.949    -401.983     127.818
  H      -53.668    -403.148     126.688
  H      -52.458    -402.436     127.730
  H      -53.725    -403.427     128.412

 3  4  5  6  7  8  9  10  11  12  23  26  30  31  33  0
 6-311+G(2d,p)
 ****
 35  36  37  38 0
 6-311+G(2d,p)
 ****
 1  2  13  14  15  16  17  18  19  20  21  22  24  25  27  28  29 0
 3-21G
 ****
 32  34  39  40  41  42  43  44  45  46  47  48  49 0
 3-21G
 ****


