%nproc=1
%NoSave
%Mem=1900MB
#P OB98/GEN NMR

erre ene a

0 1
  C     1097.715    1867.582    -152.394
  O     1098.615    1867.182    -151.379
  H     1096.752    1867.082    -152.220
  H     1098.090    1867.278    -153.365
  H     1097.557    1868.657    -152.355
  P     1100.129    1867.712    -151.433
  C     1099.563    1869.440    -149.601
  O     1100.088    1869.232    -150.901
  C     1099.585    1870.949    -149.245
  O     1098.791    1871.630    -150.274
  C     1098.961    1871.243    -147.888
  O     1099.819    1872.028    -147.038
  C     1097.600    1871.822    -148.235
  O     1097.043    1872.695    -147.266
  C     1097.818    1872.474    -149.600
  N     1096.620    1872.598    -150.420
  C     1095.846    1873.733    -150.223
  O     1096.080    1874.642    -149.416
  N     1094.707    1873.819    -150.982
  C     1094.278    1872.903    -151.903
  O     1093.264    1873.031    -152.577
  C     1095.144    1871.725    -152.071
  C     1096.251    1871.602    -151.323
  O     1100.829    1867.502    -152.720
  O     1100.852    1866.933    -150.250
  H     1097.607    1873.484    -147.235
  H     1101.394    1866.210    -150.605
  H     1094.119    1874.637    -150.851
  H     1094.852    1870.955    -152.768
  H     1096.915    1870.762    -151.418
  H     1098.255    1873.458    -149.482
  H     1096.875    1870.986    -148.350
  H     1098.802    1870.318    -147.315
  H     1100.613    1871.323    -149.321
  H     1100.192    1868.883    -148.888
  H     1098.537    1869.063    -149.538
  P     1101.072    1871.454    -146.248
  C     1102.920    1872.361    -147.858
  O     1102.270    1871.251    -147.294
  O     1100.766    1870.326    -145.320
  O     1101.558    1872.714    -145.370
  H     1101.909    1872.343    -144.538
  H     1103.685    1872.025    -148.526
  H     1103.360    1872.950    -147.080
  H     1102.211    1872.954    -148.397

 6  7  8  9  10  11  12  13  14  15  16  26  31  32  33  34  35 0
 6-311+G(2d,p)
 ****
 36  37 0
 6-311+G(2d,p)
 ****
 1  2  3  4  5  17  18  19  20  21  22  23  24  25 0
 3-21G
 ****
 27  28  29  30  38  39  40  41  42  43  44  45 0
 3-21G
 ****


