%nproc=1
%NoSave
%Mem=1900MB
#P OB98/GEN NMR

erre ene a

0 1
  C     -129.066       9.920     109.273
  O     -128.840       8.544     109.015
  P     -128.757       8.079     107.478
  C     -129.706       5.716     106.939
  O     -128.645       6.478     107.498
  C     -129.571       4.250     107.340
  O     -128.312       3.711     106.889
  C     -129.596       4.011     108.842
  O     -130.913       3.995     109.366
  C     -128.976       2.626     108.927
  O     -129.963       1.624     108.614
  C     -127.908       2.684     107.828
  N     -124.320       1.258     111.098
  C     -125.465       0.596     110.699
  N     -125.717      -0.585     111.301
  N     -126.287       1.049     109.789
  C     -125.912       2.248     109.279
  C     -124.799       3.000     109.592
  C     -123.906       2.491     110.610
  O     -122.909       3.055     111.044
  N     -124.753       4.153     108.859
  C     -125.830       4.107     108.100
  N     -126.588       2.991     108.348
  O     -127.294       8.544     107.030
  O     -129.822       8.642     106.599
  H     -130.571       1.584     109.380
  H     -127.232       8.560     106.056
  H     -123.721       0.870     111.808
  H     -126.108       4.858     107.373
  H     -127.840       1.743     107.271
  H     -128.590       2.392     109.923
  H     -125.157      -0.960     112.054
  H     -128.954       4.728     109.371
  H     -126.580      -1.063     111.073
  H     -130.377       3.688     106.846
  H     -129.677       5.803     105.850
  H     -130.661       6.118     107.288
  P     -131.443       5.361     110.028
  C     -132.262       4.223     112.214
  O     -132.609       4.920     111.034
  O     -132.220       6.066     108.823
  O     -130.371       6.227     110.600
  H     -132.232       7.035     108.944
  H     -133.119       4.238     112.895
  H     -131.410       4.693     112.715
  H     -132.022       3.184     111.976
  H     -129.098      10.084     110.330
  H     -129.998      10.216     108.838
  H     -128.273      10.498     108.846

 3  4  5  6  7  8  9  10  11  12  23  26  30  31 0
 6-311+G(2d,p)
 ****
 33  35  36  37  38 0
 6-311+G(2d,p)
 ****
 1  2  13  14  15  16  17  18  19  20  21  22  24  25 0
 3-21G
 ****
 27  28  29  32  34  39  40  41  42  43  44  45  46  47  48  49 0
 3-21G
 ****


