%nproc=1
%NoSave
%Mem=1900MB
#P OB98/GEN NMR

erre ene a

0 1
  C     -463.096    -269.539    -170.650
  O     -464.242    -270.038    -171.309
  P     -464.197    -270.725    -172.751
  C     -465.344    -272.752    -173.922
  O     -465.074    -272.077    -172.695
  C     -466.194    -274.015    -173.735
  O     -465.512    -274.937    -172.857
  C     -467.523    -273.667    -173.046
  O     -468.614    -273.182    -173.810
  C     -467.841    -274.864    -172.167
  O     -468.774    -275.765    -172.771
  C     -466.476    -275.544    -171.991
  N     -465.942    -278.088    -167.622
  C     -466.246    -278.575    -168.882
  N     -466.642    -279.864    -168.941
  N     -466.191    -277.850    -169.973
  C     -465.874    -276.549    -169.743
  C     -465.533    -275.958    -168.549
  C     -465.555    -276.779    -167.358
  O     -465.373    -276.365    -166.212
  N     -465.337    -274.604    -168.686
  C     -465.601    -274.376    -169.957
  N     -465.965    -275.516    -170.631
  O     -462.866    -270.769    -173.434
  O     -465.148    -269.741    -173.607
  H     -468.923    -276.504    -172.149
  H     -464.789    -269.706    -174.515
  H     -466.076    -278.671    -166.808
  H     -465.568    -273.397    -170.429
  H     -466.535    -276.606    -172.284
  H     -468.295    -274.539    -171.222
  H     -466.837    -280.404    -168.108
  H     -467.303    -272.852    -172.346
  H     -467.040    -280.206    -169.810
  H     -466.315    -274.548    -174.686
  H     -464.378    -272.996    -174.376
  H     -465.858    -272.062    -174.606
  P     -469.626    -272.020    -173.377
  C     -471.631    -270.843    -174.473
  O     -470.388    -271.500    -174.691
  O     -468.686    -270.776    -173.009
  O     -470.525    -272.358    -172.226
  H     -469.158    -270.161    -172.416
  H     -472.192    -270.811    -175.409
  H     -471.442    -269.818    -174.133
  H     -472.221    -271.372    -173.721
  H     -463.379    -269.128    -169.703
  H     -462.644    -268.776    -171.249
  H     -462.397    -270.335    -170.499

 3  4  5  6  7  8  9  10  11  12  23  26  30  31 0
 6-311+G(2d,p)
 ****
 33  35  36  37  38 0
 6-311+G(2d,p)
 ****
 1  2  13  14  15  16  17  18  19  20  21  22  24  25 0
 3-21G
 ****
 27  28  29  32  34  39  40  41  42  43  44  45  46  47  48  49 0
 3-21G
 ****


