%nproc=1
%NoSave
%Mem=1900MB
#P OB98/GEN NMR

erre ene a

0 1
  C     -299.816     125.334     376.954
  O     -298.717     124.458     376.796
  H     -300.556     125.107     376.182
  H     -299.487     126.368     376.829
  H     -300.274     125.202     377.936
  P     -297.572     124.505     377.920
  C     -297.856     122.001     378.555
  O     -296.995     123.008     378.048
  C     -297.474     120.635     377.985
  O     -297.967     120.543     376.622
  C     -295.967     120.375     377.959
  O     -295.729     119.003     378.285
  C     -295.582     120.629     376.514
  O     -294.398     119.930     376.131
  C     -296.852     120.193     375.773
  N     -296.954     120.825     374.460
  C     -296.539     120.062     373.363
  O     -296.108     118.915     373.532
  N     -296.566     120.625     372.115
  C     -296.898     121.873     371.982
  N     -296.877     122.381     370.716
  C     -297.276     122.736     373.113
  C     -297.288     122.149     374.318
  O     -298.391     124.696     379.278
  O     -296.527     125.554     377.728
  H     -294.539     118.969     376.296
  H     -297.876     125.212     379.933
  H     -297.514     123.775     372.959
  H     -297.546     122.707     375.207
  H     -296.867     119.099     375.644
  H     -295.405     121.702     376.363
  H     -295.411     121.017     378.652
  H     -297.996     119.857     378.566
  H     -296.594     121.761     369.968
  H     -298.886     122.235     378.265
  H     -297.069     123.344     370.498
  H     -297.796     121.990     379.648
  P     -294.220     118.593     378.626
  C     -294.728     117.521     380.941
  O     -294.253     117.330     379.612
  O     -293.711     119.791     379.556
  O     -293.356     118.430     377.418
  H     -293.073     120.341     379.066
  H     -294.689     116.592     381.471
  H     -295.738     117.873     380.912
  H     -294.114     118.242     381.439

 6  7  8  9  10  11  12  13  14  15  16  26  30  31  32  33  35 0
 6-311+G(2d,p)
 ****
 37  38 0
 6-311+G(2d,p)
 ****
 1  2  3  4  5  17  18  19  20  21  22  23  24  25 0
 3-21G
 ****
 27  28  29  34  36  39  40  41  42  43  44  45  46 0
 3-21G
 ****


