%nproc=1
%NoSave
%Mem=1900MB
#P OB98/GEN NMR

erre ene a

0 1
  C      144.930     533.337     260.123
  O      144.925     533.586     261.513
  H      144.219     534.016     259.646
  H      144.625     532.309     259.928
  H      145.924     533.516     259.706
  P      146.042     532.822     262.388
  C      146.024     530.568     263.738
  O      145.284     531.574     263.048
  C      145.078     529.484     264.254
  O      144.351     529.991     265.397
  C      144.045     529.006     263.221
  O      143.844     527.602     263.381
  C      142.779     529.763     263.607
  O      141.601     529.098     263.153
  C      142.941     529.848     265.129
  N      142.181     530.964     265.710
  C      140.806     530.760     265.876
  O      140.279     529.696     265.534
  N      140.047     531.782     266.398
  C      140.599     532.930     266.664
  N      139.791     533.904     267.148
  C      142.030     533.200     266.444
  C      142.759     532.173     265.984
  O      146.244     533.841     263.608
  O      147.288     532.497     261.640
  H      140.849     529.389     263.707
  H      145.410     534.221     263.947
  H      142.441     534.180     266.656
  H      143.824     532.292     265.804
  H      142.601     528.916     265.613
  H      142.786     530.759     263.166
  H      144.340     529.226     262.195
  H      145.680     528.631     264.620
  H      138.808     533.693     267.256
  H      146.572     531.006     264.579
  H      140.100     534.848     267.335
  H      146.752     530.146     263.040
  P      144.097     526.638     262.126
  C      142.743     525.629     260.176
  O      142.750     526.562     261.256
  O      144.718     525.302     262.447
  O      145.073     527.495     261.185
  H      145.728     526.884     260.789
  H      141.798     525.670     259.675
  H      142.902     524.642     260.557
  H      143.523     525.875     259.487

 6  7  8  9  10  11  12  13  14  15  16  26  30  31  32  33  35 0
 6-311+G(2d,p)
 ****
 37  38 0
 6-311+G(2d,p)
 ****
 1  2  3  4  5  17  18  19  20  21  22  23  24  25 0
 3-21G
 ****
 27  28  29  34  36  39  40  41  42  43  44  45  46 0
 3-21G
 ****


