%nproc=1
%NoSave
%Mem=1900MB
#P OB98/GEN NMR

erre ene a

0 1
  C     -121.017    -197.774      -3.958
  O     -120.006    -197.027      -3.306
  H     -121.991    -197.373      -3.669
  H     -120.961    -198.821      -3.648
  H     -120.907    -197.698      -5.043
  P     -118.486    -197.395      -3.664
  C     -117.050    -199.553      -3.519
  O     -118.245    -198.893      -3.123
  C     -117.191    -201.067      -3.359
  O     -117.425    -201.374      -1.950
  C     -118.351    -201.686      -4.162
  O     -117.943    -202.986      -4.602
  C     -119.436    -201.857      -3.110
  O     -120.404    -202.837      -3.483
  C     -118.581    -202.235      -1.898
  N     -118.773    -203.808       2.885
  C     -117.878    -204.106       1.872
  N     -116.877    -204.961       2.186
  N     -117.955    -203.618       0.664
  C     -118.985    -202.753       0.505
  C     -119.943    -202.375       1.419
  C     -119.861    -202.946       2.748
  O     -120.634    -202.733       3.676
  N     -120.842    -201.494       0.860
  C     -120.425    -201.341      -0.389
  N     -119.304    -202.085      -0.649
  O     -117.654    -196.485      -2.640
  O     -118.085    -197.155      -5.082
  H     -120.969    -203.015      -2.700
  H     -117.407    -195.641      -3.062
  H     -118.671    -204.220       3.795
  H     -120.898    -200.717      -1.135
  H     -118.235    -203.277      -1.940
  H     -119.958    -200.907      -2.941
  H     -116.723    -205.340       3.106
  H     -118.673    -201.086      -5.024
  H     -116.182    -205.163       1.471
  H     -116.235    -201.538      -3.627
  H     -116.223    -199.201      -2.891
  H     -116.831    -199.307      -4.565
  P     -117.176    -203.103      -6.007
  C     -117.767    -203.906      -8.414
  O     -118.239    -203.568      -7.119
  O     -116.273    -204.413      -5.815
  O     -116.350    -201.907      -6.356
  H     -115.477    -204.354      -6.374
  H     -118.593    -204.192      -9.031
  H     -117.077    -204.721      -8.341
  H     -117.275    -203.060      -8.846

 6  7  8  9  10  11  12  13  14  15  26  29  33  34 0
 6-311+G(2d,p)
 ****
 36  38  39  40  41 0
 6-311+G(2d,p)
 ****
 1  2  3  4  5  16  17  18  19  20  21  22  23  24  25 0
 3-21G
 ****
 27  28  30  31  32  35  37  42  43  44  45  46  47 0
 3-21G
 ****
 48  49 0
 3-21G
 ****


