%nproc=1
%NoSave
%Mem=1900MB
#P OB98/GEN NMR

erre ene a

0 1
  C     -167.774       0.557       8.614
  O     -169.003       1.075       9.104
  P     -169.754       0.236      10.250
  C     -171.028      -2.024      10.308
  O     -170.378      -1.043       9.508
  C     -171.826      -2.984       9.435
  O     -172.934      -2.288       8.833
  C     -171.045      -3.583       8.275
  O     -170.241      -4.678       8.685
  C     -172.177      -4.044       7.367
  O     -172.673      -5.317       7.818
  C     -173.236      -2.949       7.579
  N     -174.751      -1.914       2.859
  C     -174.926      -3.057       3.615
  N     -175.630      -4.057       3.038
  N     -174.455      -3.208       4.823
  C     -173.807      -2.112       5.285
  C     -173.567      -0.924       4.631
  C     -174.050      -0.789       3.274
  O     -173.867       0.175       2.531
  N     -172.887      -0.042       5.433
  C     -172.750      -0.678       6.579
  N     -173.265      -1.950       6.529
  O     -171.038       1.137      10.573
  O     -168.945      -0.037      11.471
  H     -171.989      -5.982       7.612
  H     -171.345       0.959      11.484
  H     -175.150      -1.845       1.939
  H     -172.288      -0.259       7.463
  H     -174.239      -3.382       7.677
  H     -171.863      -4.174       6.326
  H     -176.128      -3.951       2.167
  H     -170.451      -2.819       7.762
  H     -175.801      -4.888       3.592
  H     -172.231      -3.777      10.079
  H     -171.709      -1.526      11.007
  H     -170.272      -2.567      10.885
  P     -168.851      -4.881       7.906
  C     -168.268      -5.449       5.439
  O     -169.259      -5.406       6.450
  O     -168.216      -6.166       8.619
  O     -167.941      -3.701       7.955
  H     -167.244      -6.153       8.534
  H     -167.293      -5.729       5.846
  H     -168.194      -4.468       4.959
  H     -168.560      -6.190       4.691
  H     -167.386       1.211       7.861
  H     -167.938      -0.413       8.194
  H     -167.072       0.484       9.418

 3  4  5  6  7  8  9  10  11  12  23  26  30  31  33  0
 6-311+G(2d,p)
 ****
 35  36  37  38 0
 6-311+G(2d,p)
 ****
 1  2  13  14  15  16  17  18  19  20  21  22  24  25  27  28  29 0
 3-21G
 ****
 32  34  39  40  41  42  43  44  45  46  47  48  49 0
 3-21G
 ****


