%nproc=1
%NoSave
%Mem=1900MB
#P OB98/GEN NMR

erre ene a

0 1
  C      172.405     726.226     232.891
  O      172.654     726.982     234.061
  H      172.073     725.229     233.184
  H      173.323     726.139     232.301
  H      171.620     726.699     232.292
  P      172.980     728.542     233.859
  C      170.593     729.245     234.706
  O      171.556     729.258     233.667
  C      169.210     729.611     234.160
  O      168.793     728.597     233.218
  C      168.132     729.713     235.244
  O      167.228     730.762     234.882
  C      167.415     728.378     235.151
  O      166.091     728.438     235.672
  C      167.512     728.089     233.639
  N      167.363     726.670     233.330
  C      166.059     726.200     233.166
  O      165.100     726.957     233.296
  N      165.863     724.863     232.899
  C      166.873     724.060     232.872
  N      166.614     722.746     232.627
  C      168.269     724.506     233.083
  C      168.437     725.813     233.291
  O      173.614     728.555     232.387
  O      173.852     729.132     234.913
  H      165.608     729.153     235.202
  H      173.122     728.013     231.749
  H      169.082     723.796     233.053
  H      169.430     726.225     233.451
  H      166.740     728.650     233.096
  H      167.966     727.614     235.713
  H      168.538     729.905     236.234
  H      169.301     730.553     233.606
  H      165.646     722.480     232.511
  H      170.876     729.947     235.496
  H      167.318     722.025     232.635
  H      170.577     728.241     235.136
  P      167.515     732.254     235.376
  C      168.391     733.171     233.124
  O      168.684     732.897     234.491
  O      167.658     732.431     236.853
  O      166.214     733.054     234.853
  H      165.950     733.682     235.552
  H      169.253     733.595     232.653
  H      167.576     733.862     233.065
  H      168.124     732.262     232.627

 6  7  8  9  10  11  12  13  14  15  16  26  30  31  32  33  35 0
 6-311+G(2d,p)
 ****
 37  38 0
 6-311+G(2d,p)
 ****
 1  2  3  4  5  17  18  19  20  21  22  23  24  25 0
 3-21G
 ****
 27  28  29  34  36  39  40  41  42  43  44  45  46 0
 3-21G
 ****


