%nproc=1
%NoSave
%Mem=1900MB
#P OB98/GEN NMR

erre ene a

0 1
  C     -852.892    1194.406    -239.707
  O     -853.434    1195.697    -239.438
  P     -854.515    1196.344    -240.404
  C     -855.729    1197.355    -238.381
  O     -855.102    1197.616    -239.628
  C     -856.375    1198.645    -237.838
  O     -857.178    1199.307    -238.862
  C     -857.368    1198.403    -236.709
  O     -856.849    1197.900    -235.466
  C     -858.100    1199.745    -236.657
  O     -857.352    1200.713    -235.935
  C     -858.167    1200.106    -238.167
  N     -859.511    1199.895    -238.719
  C     -860.194    1201.053    -239.061
  O     -859.745    1202.191    -238.924
  N     -861.479    1200.880    -239.549
  C     -862.142    1199.664    -239.673
  O     -863.271    1199.569    -240.065
  C     -861.336    1198.479    -239.285
  C     -860.087    1198.630    -238.824
  O     -855.573    1195.411    -240.952
  O     -853.623    1197.034    -241.541
  H     -856.432    1200.686    -236.267
  H     -853.006    1197.710    -241.224
  H     -861.988    1201.701    -239.781
  H     -861.804    1197.507    -239.389
  H     -859.495    1197.787    -238.546
  H     -857.872    1201.154    -238.313
  H     -859.070    1199.657    -236.167
  H     -858.098    1197.626    -237.027
  H     -855.580    1199.331    -237.551
  H     -854.971    1197.019    -237.659
  H     -856.473    1196.558    -238.513
  P     -857.624    1196.852    -234.560
  C     -855.611    1195.273    -233.994
  O     -856.565    1196.223    -233.512
  O     -858.549    1195.913    -235.269
  O     -858.481    1197.816    -233.605
  H     -859.306    1197.369    -233.335
  H     -855.036    1194.931    -233.152
  H     -854.946    1195.787    -234.733
  H     -856.113    1194.418    -234.458
  H     -852.185    1194.150    -238.945
  H     -852.403    1194.416    -240.659
  H     -853.681    1193.683    -239.719

 3  4  5  6  7  8  9  10  11  12  13  23  28  29  30  31  32 0
 6-311+G(2d,p)
 ****
 33  34 0
 6-311+G(2d,p)
 ****
 1  2  14  15  16  17  18  19  20  21  22  24  25  26  27 0
 3-21G
 ****
 35  36  37  38  39  40  41  42  43  44  45 0
 3-21G
 ****


