%nproc=1
%NoSave
%Mem=1900MB
#P OB98/GEN NMR

erre ene a

0 1
  C     -387.248     249.006    -482.276
  O     -386.900     247.681    -482.659
  P     -385.447     247.421    -483.286
  C     -386.026     247.798    -485.844
  O     -385.317     248.180    -484.686
  C     -385.467     248.560    -487.060
  O     -385.768     249.968    -486.936
  C     -383.957     248.432    -487.205
  O     -383.588     247.275    -487.932
  C     -383.600     249.729    -487.907
  O     -383.917     249.640    -489.309
  C     -384.553     250.727    -487.200
  N     -384.095     251.346    -485.934
  C     -383.151     252.368    -485.961
  O     -382.639     252.807    -486.991
  N     -382.797     252.892    -484.747
  C     -383.404     252.638    -483.549
  O     -383.083     253.184    -482.500
  C     -384.495     251.662    -483.597
  C     -384.782     251.062    -484.759
  O     -385.480     245.874    -483.689
  O     -384.316     247.737    -482.359
  H     -383.297     248.999    -489.704
  H     -384.830     245.369    -483.162
  H     -382.064     253.581    -484.740
  H     -385.033     251.459    -482.680
  H     -385.587     250.335    -484.804
  H     -384.816     251.551    -487.874
  H     -382.534     249.929    -487.849
  H     -383.475     248.444    -486.218
  H     -385.965     248.180    -487.960
  H     -387.095     248.005    -485.731
  H     -385.927     246.719    -485.999
  P     -383.097     245.965    -487.150
  C     -380.568     245.799    -487.544
  O     -381.591     246.272    -486.693
  O     -383.306     244.666    -487.857
  O     -383.901     246.031    -485.764
  H     -384.722     245.479    -485.810
  H     -379.613     246.207    -487.203
  H     -380.748     246.119    -488.575
  H     -380.527     244.709    -487.502
  H     -388.241     249.013    -481.879
  H     -387.201     249.648    -483.131
  H     -386.563     249.353    -481.531

 3  4  5  6  7  8  9  10  11  12  13  23  28  29  30  31  32 0
 6-311+G(2d,p)
 ****
 33  34 0
 6-311+G(2d,p)
 ****
 1  2  14  15  16  17  18  19  20  21  22  24  25  26  27 0
 3-21G
 ****
 35  36  37  38  39  40  41  42  43  44  45 0
 3-21G
 ****


