%nproc=1
%NoSave
%Mem=1900MB
#P OB98/GEN NMR

erre ene a

0 1
  C       42.826      52.106    -169.662
  O       41.823      51.646    -168.773
  H       42.366      52.328    -170.629
  H       43.582      51.328    -169.801
  H       43.293      53.016    -169.274
  P       42.250      51.488    -167.238
  C       43.534      49.679    -165.835
  O       43.094      50.124    -167.114
  C       44.161      48.292    -165.952
  O       45.463      48.368    -166.564
  C       44.431      47.616    -164.617
  O       43.251      47.165    -163.986
  C       45.353      46.485    -165.054
  O       44.617      45.350    -165.522
  C       46.147      47.140    -166.211
  N       47.536      47.363    -165.853
  C       48.397      46.280    -166.083
  O       47.960      45.239    -166.576
  N       49.712      46.395    -165.713
  C       50.127      47.482    -165.138
  N       51.437      47.518    -164.767
  C       49.256      48.646    -164.878
  C       47.981      48.520    -165.256
  O       40.863      51.125    -166.530
  O       42.941      52.676    -166.654
  H       44.143      45.642    -166.328
  H       40.371      50.413    -166.974
  H       49.655      49.534    -164.407
  H       47.272      49.325    -165.101
  H       46.121      46.501    -167.104
  H       45.985      46.138    -164.230
  H       45.001      48.288    -163.959
  H       43.510      47.675    -166.587
  H       51.986      46.679    -164.916
  H       42.698      49.661    -165.128
  H       51.849      48.276    -164.244
  H       44.269      50.402    -165.467
  P       42.836      47.683    -162.528
  C       43.560      47.198    -160.100
  O       43.727      46.855    -161.472
  O       41.373      47.670    -162.238
  O       43.503      49.138    -162.457
  H       44.471      49.151    -162.562
  H       44.199      46.585    -159.499
  H       42.541      47.039    -159.814
  H       43.814      48.227    -159.956

 6  7  8  9  10  11  12  13  14  15  16  26  30  31  32  33  35 0
 6-311+G(2d,p)
 ****
 37  38 0
 6-311+G(2d,p)
 ****
 1  2  3  4  5  17  18  19  20  21  22  23  24  25 0
 3-21G
 ****
 27  28  29  34  36  39  40  41  42  43  44  45  46 0
 3-21G
 ****


