%nproc=1
%NoSave
%Mem=1900MB
#P OB98/GEN NMR

erre ene a

0 1
  C      650.466       8.803     179.638
  O      650.969       9.152     178.364
  H      650.109       9.706     180.137
  H      651.262       8.356     180.243
  H      649.636       8.097     179.539
  P      651.331       7.938     177.382
  C      652.994       5.912     177.453
  O      652.445       7.039     178.120
  C      654.519       5.949     177.537
  O      655.045       7.084     176.817
  C      655.066       6.130     178.940
  O      654.929       4.967     179.734
  C      656.513       6.486     178.639
  O      657.321       5.321     178.438
  C      656.383       7.299     177.327
  N      656.678       8.704     177.528
  C      658.014       9.077     177.310
  O      658.838       8.231     176.959
  N      658.383      10.375     177.539
  C      657.498      11.224     177.976
  N      657.944      12.491     178.217
  C      656.084      10.874     178.215
  C      655.746       9.609     177.972
  O      652.158       8.669     176.226
  O      650.156       7.155     176.896
  H      658.236       5.641     178.306
  H      652.858       9.253     176.554
  H      655.393      11.625     178.564
  H      654.731       9.268     178.128
  H      657.071       6.906     176.568
  H      656.969       7.048     179.456
  H      654.590       6.992     179.424
  H      654.909       5.030     177.070
  H      658.928      12.672     178.087
  H      652.672       5.885     176.412
  H      657.369      13.211     178.628
  H      652.604       5.012     177.946
  P      655.385       4.941     181.266
  C      657.218       3.529     182.404
  O      656.886       4.356     181.288
  O      654.452       4.265     182.208
  O      655.640       6.491     181.592
  H      656.307       6.920     181.039
  H      658.232       3.199     182.314
  H      656.567       2.680     182.425
  H      657.103       4.088     183.309

 6  7  8  9  10  11  12  13  14  15  16  26  30  31  32  33  35 0
 6-311+G(2d,p)
 ****
 37  38 0
 6-311+G(2d,p)
 ****
 1  2  3  4  5  17  18  19  20  21  22  23  24  25 0
 3-21G
 ****
 27  28  29  34  36  39  40  41  42  43  44  45  46 0
 3-21G
 ****


