%nproc=1
%NoSave
%Mem=1900MB
#P OB98/GEN NMR

erre ene a

0 1
  C       62.242    -181.702     -53.710
  O       63.568    -181.551     -53.237
  P       64.720    -181.225     -54.300
  C       65.028    -183.719     -54.952
  O       65.636    -182.534     -54.453
  C       66.055    -184.601     -55.670
  O       65.428    -185.839     -56.085
  C       66.652    -183.949     -56.923
  O       68.019    -184.368     -57.073
  C       65.862    -184.572     -58.053
  O       66.585    -184.526     -59.286
  C       65.643    -185.981     -57.505
  N       64.284    -189.397     -60.977
  C       65.524    -189.158     -60.418
  N       66.556    -189.879     -60.917
  N       65.730    -188.308     -59.452
  C       64.609    -187.657     -59.060
  C       63.319    -187.816     -59.529
  C       63.110    -188.755     -60.607
  O       62.041    -188.989     -61.161
  N       62.442    -187.006     -58.855
  C       63.197    -186.322     -58.014
  N       64.520    -186.658     -58.125
  O       65.663    -180.200     -53.505
  O       64.238    -180.626     -55.577
  H       66.713    -183.578     -59.500
  H       65.528    -179.295     -53.841
  H       64.172    -190.060     -61.731
  H       62.837    -185.566     -57.326
  H       66.531    -186.611     -57.643
  H       64.913    -184.040     -58.192
  H       66.469    -190.506     -61.707
  H       66.601    -182.852     -56.934
  H       67.478    -189.693     -60.556
  H       66.845    -184.863     -54.954
  H       64.240    -183.444     -55.659
  H       64.570    -184.271     -54.124
  P       69.123    -183.197     -57.003
  C       69.680    -183.636     -59.510
  O       70.159    -183.510     -58.185
  O       69.943    -183.551     -55.672
  O       68.552    -181.821     -56.975
  H       70.356    -182.743     -55.308
  H       70.116    -182.842     -60.124
  H       68.586    -183.568     -59.566
  H       69.996    -184.602     -59.911
  H       61.592    -181.915     -52.887
  H       62.204    -182.508     -54.413
  H       61.928    -180.797     -54.187

 3  4  5  6  7  8  9  10  11  12  23  26  30  31 0
 6-311+G(2d,p)
 ****
 33  35  36  37  38 0
 6-311+G(2d,p)
 ****
 1  2  13  14  15  16  17  18  19  20  21  22  24  25 0
 3-21G
 ****
 27  28  29  32  34  39  40  41  42  43  44  45  46  47  48  49 0
 3-21G
 ****


