%nproc=1
%NoSave
%Mem=1900MB
#P OB98/GEN NMR

erre ene a

0 1
  C       66.332     233.302      -8.301
  O       67.116     234.126      -9.179
  P       67.770     233.469     -10.492
  C       70.162     233.902      -9.524
  O       69.262     232.994     -10.138
  C       71.473     233.190      -9.170
  O       71.278     232.293      -8.055
  C       72.031     232.318     -10.289
  O       72.662     233.087     -11.296
  C       72.996     231.424      -9.516
  O       74.254     232.085      -9.303
  C       72.250     231.232      -8.180
  N       71.626     229.920      -8.064
  C       72.436     228.890      -7.594
  O       73.628     229.035      -7.337
  N       71.831     227.668      -7.457
  C       70.544     227.367      -7.805
  O       70.064     226.248      -7.679
  C       69.762     228.475      -8.375
  C       70.335     229.678      -8.479
  O       68.044     234.757     -11.408
  O       66.920     232.477     -11.215
  H       74.048     232.974      -8.953
  H       68.018     234.499     -12.348
  H       72.389     226.917      -7.089
  H       68.746     228.275      -8.685
  H       69.768     230.507      -8.899
  H       72.944     231.364      -7.338
  H       73.208     230.486     -10.041
  H       71.233     231.699     -10.713
  H       72.209     233.949      -8.874
  H       69.712     234.294      -8.609
  H       70.350     234.735     -10.210
  P       71.923     233.151     -12.723
  C       72.591     230.694     -13.321
  O       71.564     231.631     -13.080
  O       73.150     233.527     -13.684
  O       70.793     234.121     -12.750
  H       73.985     233.133     -13.379
  H       73.479     230.905     -12.717
  H       72.861     230.721     -14.383
  H       72.223     229.695     -13.074
  H       65.974     233.892      -7.483
  H       66.937     232.503      -7.927
  H       65.501     232.897      -8.839

 3  4  5  6  7  8  9  10  11  12  13  23  28  29  30  31  32 0
 6-311+G(2d,p)
 ****
 33  34 0
 6-311+G(2d,p)
 ****
 1  2  14  15  16  17  18  19  20  21  22  24  25  26 0
 3-21G
 ****
 27  35  36  37  38  39  40  41  42  43  44  45 0
 3-21G
 ****


