%nproc=1
%NoSave
%Mem=1900MB
#P OB98/GEN NMR

erre ene a

0 1
  C       60.235     -13.434     220.245
  O       61.034     -14.222     219.390
  H       59.316     -13.981     220.471
  H       59.967     -12.500     219.745
  H       60.752     -13.218     221.183
  P       62.554     -13.789     219.126
  C       62.563     -13.855     216.546
  O       62.980     -14.489     217.746
  C       63.382     -14.376     215.363
  O       64.706     -13.760     215.419
  C       63.577     -15.906     215.377
  O       63.604     -16.374     214.024
  C       64.953     -16.029     215.998
  O       65.547     -17.272     215.722
  C       65.665     -14.831     215.375
  N       66.896     -14.508     216.090
  C       67.941     -15.417     215.986
  O       67.874     -16.462     215.341
  N       69.063     -15.127     216.713
  C       69.195     -14.100     217.600
  O       70.194     -13.933     218.285
  C       68.036     -13.199     217.710
  C       66.959     -13.436     216.958
  O       63.503     -14.009     220.255
  O       62.457     -12.247     218.703
  H       64.937     -17.994     215.964
  H       63.315     -11.803     218.839
  H       69.834     -15.773     216.638
  H       68.102     -12.383     218.417
  H       66.081     -12.804     217.026
  H       65.902     -15.022     214.321
  H       64.886     -15.924     217.086
  H       62.803     -16.432     215.940
  H       62.914     -14.045     214.429
  H       62.714     -12.775     216.658
  H       61.498     -14.050     216.381
  P       62.271     -16.846     213.265
  C       63.209     -19.152     212.633
  O       62.621     -17.949     212.147
  O       61.422     -15.723     212.762
  O       61.467     -17.684     214.368
  H       60.529     -17.412     214.355
  H       63.400     -19.812     211.813
  H       62.539     -19.623     213.322
  H       64.129     -18.924     213.129

 6  7  8  9  10  11  12  13  14  15  16  26  31  32  33  34  35 0
 6-311+G(2d,p)
 ****
 36  37 0
 6-311+G(2d,p)
 ****
 1  2  3  4  5  17  18  19  20  21  22  23  24  25 0
 3-21G
 ****
 27  28  29  30  38  39  40  41  42  43  44  45 0
 3-21G
 ****


