%nproc=1
%NoSave
%Mem=1900MB
#P OB98/GEN NMR

erre ene a

0 1
  C      -39.979    -497.199     103.481
  O      -39.980    -498.332     102.633
  H      -40.859    -497.212     104.133
  H      -39.080    -497.222     104.100
  H      -39.972    -496.283     102.882
  P      -41.280    -498.532     101.716
  C      -41.756    -500.711     103.043
  O      -42.275    -499.487     102.540
  C      -42.289    -500.970     104.448
  O      -42.117    -499.793     105.269
  C      -43.775    -501.295     104.520
  O      -44.040    -502.648     104.162
  C      -44.052    -501.039     105.993
  O      -43.628    -502.179     106.770
  C      -43.146    -499.833     106.293
  N      -47.005    -497.142     108.351
  C      -46.571    -498.409     108.566
  N      -45.551    -499.061     107.975
  C      -44.932    -498.268     107.084
  C      -45.257    -496.958     106.755
  C      -46.358    -496.393     107.428
  N      -46.801    -495.112     107.190
  N      -44.394    -496.462     105.805
  C      -43.555    -497.449     105.562
  N      -43.845    -498.564     106.305
  O      -40.758    -499.481     100.532
  O      -41.888    -497.278     101.183
  H      -43.615    -501.890     107.704
  H      -41.207    -499.226      99.702
  H      -47.120    -498.970     109.321
  H      -42.727    -497.398     104.865
  H      -42.634    -499.949     107.255
  H      -45.106    -500.870     106.209
  H      -44.363    -500.598     103.912
  H      -41.689    -501.779     104.892
  H      -40.663    -500.653     103.078
  H      -47.453    -494.699     107.833
  H      -46.299    -494.555     106.500
  H      -42.047    -501.522     102.370
  P      -44.766    -502.915     102.754
  C      -46.757    -503.966     104.047
  O      -46.332    -503.001     103.088
  O      -44.373    -504.432     102.430
  O      -44.371    -501.988     101.655
  H      -44.404    -504.580     101.463
  H      -47.819    -503.907     104.166
  H      -46.282    -503.769     104.985
  H      -46.489    -504.946     103.710

 6  7  8  9  10  11  12  13  14  15  25  28  32  33  34  35 0
 6-311+G(2d,p)
 ****
 36  39  40 0
 6-311+G(2d,p)
 ****
 1  2  3  4  5  16  17  18  19  20  21  22  23  24 0
 3-21G
 ****
 26  27  29  30  31  37  38  41  42  43  44  45  46  47  48 0
 3-21G
 ****


