%nproc=1
%NoSave
%Mem=1900MB
#P OB98/GEN NMR

erre ene a

0 1
  C       50.965    -190.639     -25.109
  O       52.280    -191.094     -25.349
  H       50.970    -189.546     -25.072
  H       50.604    -191.022     -24.152
  H       50.296    -190.961     -25.913
  P       52.479    -192.671     -25.557
  C       53.286    -193.175     -23.133
  O       52.274    -193.344     -24.113
  C       53.499    -194.486     -22.376
  O       54.818    -194.460     -21.767
  C       52.480    -194.712     -21.254
  O       52.168    -196.106     -21.181
  C       53.234    -194.287     -20.007
  O       52.736    -194.869     -18.810
  C       54.656    -194.737     -20.360
  N       55.675    -194.045     -19.575
  C       55.697    -194.281     -18.205
  O       54.973    -195.085     -17.619
  N       56.608    -193.543     -17.492
  C       57.455    -192.602     -17.998
  O       58.231    -191.956     -17.305
  C       57.378    -192.390     -19.451
  C       56.505    -193.109     -20.160
  O       54.054    -192.815     -25.805
  O       51.669    -193.287     -26.646
  H       54.257    -192.752     -26.758
  H       53.403    -194.729     -18.107
  H       56.638    -193.703     -16.497
  H       58.029    -191.645     -19.888
  H       56.413    -192.967     -21.231
  H       54.757    -195.821     -20.226
  H       53.190    -193.198     -19.896
  H       51.563    -194.136     -21.390
  H       53.491    -195.317     -23.092
  H       52.975    -192.397     -22.427
  H       54.215    -192.863     -23.622
  P       50.694    -196.559     -21.633
  C       49.745    -196.983     -19.233
  O       49.726    -196.188     -20.406
  O       50.820    -198.149     -21.574
  O       50.295    -195.999     -22.957
  H       51.374    -198.468     -20.841
  H       49.043    -196.593     -18.526
  H       50.726    -196.966     -18.807
  H       49.480    -197.990     -19.480

 6  7  8  9  10  11  12  13  14  15  16  27  31  32  33  34  35 0
 6-311+G(2d,p)
 ****
 36  37 0
 6-311+G(2d,p)
 ****
 1  2  3  4  5  17  18  19  20  21  22  23  24  25 0
 3-21G
 ****
 26  28  29  30  38  39  40  41  42  43  44  45 0
 3-21G
 ****


