%nproc=1
%NoSave
%Mem=1900MB
#P OB98/GEN NMR

erre ene a

0 1
  C     -312.215    -668.111     846.754
  O     -311.816    -666.768     846.514
  P     -310.237    -666.493     846.366
  C     -310.116    -666.013     843.796
  O     -310.060    -665.500     845.118
  C     -310.675    -664.950     842.853
  O     -312.119    -664.892     842.960
  C     -310.174    -663.535     843.134
  O     -308.904    -663.340     842.549
  C     -311.278    -662.686     842.498
  O     -311.096    -662.585     841.075
  C     -312.532    -663.511     842.836
  N     -315.273    -659.808     844.962
  C     -314.597    -659.849     843.752
  N     -314.714    -658.749     842.975
  N     -313.889    -660.858     843.327
  C     -313.848    -661.879     844.220
  C     -314.456    -661.970     845.459
  C     -315.281    -660.858     845.878
  O     -315.967    -660.825     846.887
  N     -314.163    -663.150     846.071
  C     -313.423    -663.796     845.202
  N     -313.206    -663.080     844.059
  O     -309.673    -667.897     845.829
  O     -309.548    -666.048     847.617
  H     -311.854    -662.105     840.691
  H     -309.292    -668.421     846.554
  H     -315.819    -659.006     845.216
  H     -313.022    -664.797     845.353
  H     -313.283    -663.460     842.033
  H     -311.283    -661.664     842.884
  H     -315.230    -657.914     843.235
  H     -310.136    -663.345     844.216
  H     -314.226    -658.738     842.085
  H     -310.438    -665.245     841.824
  H     -310.773    -666.892     843.772
  H     -309.107    -666.305     843.489
  P     -307.799    -662.568     843.410
  C     -306.416    -664.758     843.584
  O     -306.428    -663.376     843.286
  O     -308.264    -662.840     844.932
  O     -307.708    -661.108     843.138
  H     -308.086    -662.040     845.474
  H     -305.650    -665.247     842.983
  H     -307.383    -665.230     843.385
  H     -306.176    -664.904     844.648
  H     -313.281    -668.158     846.832
  H     -311.775    -668.456     847.666
  H     -311.889    -668.730     845.944

 3  4  5  6  7  8  9  10  11  12  23  26  30  31 0
 6-311+G(2d,p)
 ****
 33  35  36  37  38 0
 6-311+G(2d,p)
 ****
 1  2  13  14  15  16  17  18  19  20  21  22  24  25 0
 3-21G
 ****
 27  28  29  32  34  39  40  41  42  43  44  45  46  47  48  49 0
 3-21G
 ****


