%nproc=1
%NoSave
%Mem=1900MB
#P OB98/GEN NMR

erre ene a

0 1
  C      123.041     315.779     550.846
  O      123.835     315.795     552.022
  P      124.442     314.446     552.635
  C      126.551     315.507     553.660
  O      125.282     314.920     553.924
  C      127.346     315.641     554.955
  O      126.884     316.823     555.654
  C      127.187     314.499     555.961
  O      128.033     313.384     555.725
  C      127.615     315.191     557.252
  O      129.054     315.263     557.307
  C      127.015     316.592     557.080
  N      124.334     319.056     560.673
  C      125.613     319.175     560.261
  N      126.265     318.467     559.314
  C      125.427     317.585     558.732
  C      124.099     317.354     559.044
  C      123.544     318.142     560.065
  N      122.229     318.035     560.476
  N      123.576     316.350     558.243
  C      124.576     315.999     557.460
  N      125.711     316.716     557.710
  O      125.173     313.595     551.656
  O      123.184     313.705     553.290
  H      129.380     314.343     557.316
  H      123.388     312.763     553.448
  H      126.206     319.940     560.763
  H      124.520     315.226     556.703
  H      127.670     317.377     557.480
  H      127.287     314.656     558.147
  H      126.136     314.190     556.047
  H      128.401     315.791     554.703
  H      126.387     316.503     553.229
  H      121.883     318.724     561.122
  H      121.598     317.470     559.910
  H      127.096     314.904     552.926
  P      127.324     311.995     555.309
  C      128.687     311.012     553.305
  O      128.496     311.081     554.696
  O      126.110     312.152     554.453
  O      127.026     311.312     556.729
  H      127.812     311.045     557.238
  H      129.619     310.469     553.106
  H      128.765     312.005     552.865
  H      127.858     310.459     552.835
  H      122.737     316.777     550.607
  H      122.175     315.172     551.009
  H      123.612     315.376     550.036

 3  4  5  6  7  8  9  10  11  12  22  25  29  30  31  32 0
 6-311+G(2d,p)
 ****
 33  36  37 0
 6-311+G(2d,p)
 ****
 1  2  13  14  15  16  17  18  19  20  21  23  24  26 0
 3-21G
 ****
 27  28  34  35  38  39  40  41  42  43  44  45  46  47  48 0
 3-21G
 ****


