%nproc=1
%NoSave
%Mem=1900MB
#P OB98/GEN NMR

erre ene a

0 1
  C      444.240    -366.611     312.717
  O      445.463    -367.346     312.526
  P      446.827    -366.535     312.249
  C      447.976    -367.287     314.477
  O      447.537    -366.214     313.650
  C      448.716    -366.746     315.699
  O      447.792    -366.112     316.618
  C      449.433    -367.805     316.530
  O      450.640    -368.224     315.919
  C      449.637    -367.072     317.857
  O      450.804    -366.226     317.795
  C      448.352    -366.217     317.940
  N      447.384    -366.757     318.893
  C      447.511    -366.337     320.211
  O      448.419    -365.588     320.603
  N      446.575    -366.817     321.093
  C      445.593    -367.724     320.799
  O      444.799    -368.138     321.636
  C      445.566    -368.198     319.403
  C      446.450    -367.709     318.534
  O      446.268    -365.087     311.819
  O      447.710    -367.105     311.177
  H      451.578    -366.811     317.705
  H      446.915    -364.657     311.225
  H      446.636    -366.497     322.051
  H      444.814    -368.937     319.141
  H      446.435    -368.053     317.507
  H      448.607    -365.194     318.241
  H      449.778    -367.753     318.691
  H      448.758    -368.663     316.695
  H      449.427    -365.982     315.360
  H      448.650    -367.928     313.902
  H      447.111    -367.880     314.777
  P      450.537    -369.443     314.877
  C      451.483    -368.049     312.877
  O      450.402    -368.764     313.437
  O      449.071    -370.015     315.212
  O      451.644    -370.449     315.028
  H      448.459    -369.300     315.479
  H      452.453    -368.472     313.174
  H      451.429    -367.001     313.218
  H      451.403    -368.068     311.792
  H      443.436    -367.295     312.888
  H      444.033    -366.029     311.843
  H      444.342    -365.962     313.561

 3  4  5  6  7  8  9  10  11  12  13  23  28  29  30  31  32 0
 6-311+G(2d,p)
 ****
 33  34 0
 6-311+G(2d,p)
 ****
 1  2  14  15  16  17  18  19  20  21  22  24  25  26 0
 3-21G
 ****
 27  35  36  37  38  39  40  41  42  43  44  45 0
 3-21G
 ****


