%nproc=1
%NoSave
%Mem=1900MB
#P OB98/GEN NMR

erre ene a

0 1
  C       25.867      50.496      32.457
  O       25.228      50.364      33.710
  H       25.123      50.365      31.668
  H       26.644      49.737      32.334
  H       26.305      51.494      32.361
  P       26.125      50.354      35.037
  C       26.481      47.832      35.420
  O       27.052      49.047      34.951
  C       27.413      46.652      35.139
  O       28.704      46.928      35.746
  C       26.899      45.319      35.697
  O       27.239      44.284      34.772
  C       27.692      45.169      36.979
  O       27.783      43.816      37.378
  C       29.025      45.831      36.619
  N       29.737      46.274      37.817
  C       30.865      45.535      38.184
  O       31.226      44.573      37.502
  N       31.521      45.854      39.344
  C       31.060      46.795      40.105
  N       31.736      47.035      41.261
  C       29.857      47.584      39.775
  C       29.252      47.276      38.627
  O       25.392      50.515      36.327
  O       27.162      51.551      34.799
  H       26.882      43.466      37.552
  H       26.802      52.382      35.161
  H       29.509      48.354      40.446
  H       28.355      47.794      38.308
  H       29.669      45.135      36.066
  H       27.198      45.727      37.785
  H       25.820      45.319      35.880
  H       27.577      46.588      34.057
  H       32.540      46.452      41.458
  H       25.531      47.683      34.896
  H       31.449      47.711      41.952
  H       26.283      47.906      36.494
  P       26.099      43.355      34.130
  C       26.459      40.949      34.923
  O       25.755      42.164      35.154
  O       26.369      42.912      32.730
  O       24.784      44.274      34.183
  H       24.196      44.037      33.441
  H       26.164      40.222      35.651
  H       27.511      41.126      35.002
  H       26.231      40.585      33.943

 6  7  8  9  10  11  12  13  14  15  16  26  30  31  32  33  35 0
 6-311+G(2d,p)
 ****
 37  38 0
 6-311+G(2d,p)
 ****
 1  2  3  4  5  17  18  19  20  21  22  23  24  25 0
 3-21G
 ****
 27  28  29  34  36  39  40  41  42  43  44  45  46 0
 3-21G
 ****


