%nproc=1
%NoSave
%Mem=1900MB
#P OB98/GEN NMR

erre ene a

0 1
  C      118.054     368.743    -436.412
  O      118.515     369.616    -437.450
  P      117.971     371.120    -437.515
  C      115.777     372.325    -438.171
  O      116.574     371.153    -438.296
  C      115.020     372.585    -439.476
  O      115.919     372.950    -440.560
  C      114.271     371.358    -439.981
  O      113.153     370.924    -439.231
  C      114.038     371.704    -441.441
  O      112.888     372.522    -441.612
  C      115.325     372.490    -441.793
  N      116.277     371.704    -442.574
  C      116.237     371.892    -443.955
  O      115.431     372.636    -444.508
  N      117.142     371.164    -444.685
  C      118.037     370.263    -444.179
  O      118.812     369.624    -444.884
  C      118.011     370.083    -442.719
  C      117.154     370.799    -441.995
  O      118.967     372.147    -437.948
  O      117.517     371.395    -435.992
  H      112.776     372.679    -442.566
  H      117.792     372.304    -435.761
  H      117.136     371.299    -445.685
  H      118.703     369.375    -442.286
  H      117.119     370.694    -440.911
  H      115.075     373.387    -442.371
  H      113.882     370.811    -442.055
  H      114.981     370.510    -439.967
  H      114.337     373.430    -439.320
  H      116.417     373.180    -437.932
  H      115.094     372.206    -437.324
  P      113.194     369.656    -438.258
  C      113.428     367.080    -438.506
  O      113.410     368.338    -439.149
  O      112.162     369.586    -437.179
  O      114.635     369.817    -437.569
  H      114.583     369.472    -436.661
  H      113.602     366.304    -439.264
  H      112.468     366.888    -438.015
  H      114.240     367.039    -437.771
  H      118.517     367.784    -436.520
  H      116.992     368.636    -436.482
  H      118.309     369.157    -435.459

 3  4  5  6  7  8  9  10  11  12  13  23  28  29  30  31  32 0
 6-311+G(2d,p)
 ****
 33  34 0
 6-311+G(2d,p)
 ****
 1  2  14  15  16  17  18  19  20  21  22  24  25  26  27 0
 3-21G
 ****
 35  36  37  38  39  40  41  42  43  44  45 0
 3-21G
 ****


