%nproc=1
%NoSave
%Mem=1900MB
#P OB98/GEN NMR

erre ene a

0 1
  C     -490.906     155.531    -270.436
  O     -489.689     154.842    -270.639
  H     -490.791     156.554    -270.807
  H     -491.155     155.568    -269.374
  H     -491.714     155.047    -270.993
  P     -489.557     153.346    -270.075
  C     -488.389     152.768    -272.306
  O     -488.367     152.651    -270.891
  C     -487.546     151.659    -272.958
  O     -486.134     151.945    -272.725
  C     -487.827     150.253    -272.398
  O     -487.581     149.317    -273.451
  C     -486.764     150.146    -271.322
  O     -486.611     148.817    -270.884
  C     -485.577     150.800    -272.035
  N     -484.515     151.183    -271.119
  C     -483.221     151.213    -271.653
  O     -483.029     150.901    -272.825
  N     -482.176     151.546    -270.829
  C     -482.395     151.770    -269.569
  N     -481.310     152.089    -268.808
  C     -483.738     151.701    -268.958
  C     -484.741     151.404    -269.783
  O     -490.825     152.558    -270.021
  O     -488.929     153.540    -268.616
  H     -487.487     148.407    -270.696
  H     -489.615     153.404    -267.939
  H     -483.859     151.881    -267.901
  H     -485.765     151.330    -269.423
  H     -485.156     150.130    -272.799
  H     -487.048     150.734    -270.439
  H     -488.848     150.143    -272.017
  H     -487.700     151.688    -274.046
  H     -480.412     152.118    -269.267
  H     -487.976     153.748    -272.564
  H     -481.361     152.269    -267.817
  H     -489.419     152.708    -272.676
  P     -488.756     148.633    -274.303
  C     -487.101     148.267    -276.250
  O     -488.113     147.695    -275.434
  O     -489.770     149.599    -274.822
  O     -489.438     147.586    -273.296
  H     -490.385     147.504    -273.519
  H     -486.760     147.540    -276.958
  H     -486.282     148.579    -275.636
  H     -487.499     149.113    -276.771

 6  7  8  9  10  11  12  13  14  15  16  26  30  31  32  33  35 0
 6-311+G(2d,p)
 ****
 37  38 0
 6-311+G(2d,p)
 ****
 1  2  3  4  5  17  18  19  20  21  22  23  24  25 0
 3-21G
 ****
 27  28  29  34  36  39  40  41  42  43  44  45  46 0
 3-21G
 ****


