%nproc=1
%NoSave
%Mem=1900MB
#P OB98/GEN NMR

erre ene a

0 1
  C       16.994     -54.978     -85.907
  O       16.641     -54.538     -87.211
  P       17.149     -55.397     -88.466
  C       15.306     -57.199     -88.188
  O       16.698     -56.917     -88.207
  C       14.760     -57.380     -89.604
  O       15.252     -58.636     -90.143
  C       13.231     -57.414     -89.697
  O       12.868     -56.826     -90.952
  C       12.924     -58.899     -89.737
  O       11.639     -59.170     -90.290
  C       14.102     -59.399     -90.569
  N       14.258     -63.964     -92.864
  C       14.009     -62.727     -93.342
  N       13.987     -61.558     -92.668
  C       14.254     -61.756     -91.367
  C       14.493     -62.962     -90.730
  C       14.493     -64.112     -91.539
  N       14.757     -65.372     -91.057
  N       14.699     -62.765     -89.381
  C       14.587     -61.465     -89.205
  N       14.343     -60.813     -90.380
  O       18.734     -55.434     -88.246
  O       16.798     -54.840     -89.802
  H       11.603     -60.114     -90.534
  H       19.178     -54.908     -88.939
  H       13.808     -62.666     -94.409
  H       14.672     -60.953     -88.257
  H       13.957     -59.220     -91.642
  H       12.949     -59.311     -88.722
  H       12.721     -56.900     -88.875
  H       15.165     -56.578     -90.234
  H       14.785     -56.361     -87.717
  H       14.874     -66.122     -91.718
  H       15.118     -65.468     -90.114
  H       15.123     -58.099     -87.594
  P       11.523     -55.954     -90.985
  C       12.768     -53.680     -91.062
  O       11.884     -54.529     -90.355
  O       10.608     -56.645     -89.867
  O       10.845     -55.929     -92.314
  H        9.666     -56.512     -90.080
  H       12.478     -52.641     -90.886
  H       12.747     -53.876     -92.139
  H       13.786     -53.834     -90.691
  H       16.585     -54.307     -85.181
  H       18.060     -54.998     -85.814
  H       16.603     -55.961     -85.744

 3  4  5  6  7  8  9  10  11  12  22  25  29  30  31  32 0
 6-311+G(2d,p)
 ****
 33  36  37 0
 6-311+G(2d,p)
 ****
 1  2  13  14  15  16  17  18  19  20  21  23  24  26 0
 3-21G
 ****
 27  28  34  35  38  39  40  41  42  43  44  45  46  47  48 0
 3-21G
 ****


