%nproc=1
%NoSave
%Mem=1900MB
#P OB98/GEN NMR

erre ene a

0 1
  C      -50.166      15.309     -15.999
  O      -49.836      15.724     -14.684
  P      -49.926      17.270     -14.256
  C      -51.136      16.700     -12.045
  O      -51.210      17.360     -13.301
  C      -52.439      16.899     -11.277
  O      -53.546      16.437     -12.075
  C      -52.524      16.129      -9.965
  O      -51.754      16.759      -8.953
  C      -54.030      16.119      -9.733
  O      -54.461      17.375      -9.188
  C      -54.570      15.960     -11.170
  N      -54.951      14.587     -11.483
  C      -56.047      14.069     -10.787
  O      -56.655      14.751      -9.963
  N      -56.459      12.790     -11.066
  C      -55.820      12.080     -11.943
  N      -56.313      10.845     -12.228
  C      -54.627      12.567     -12.659
  C      -54.256      13.816     -12.387
  O      -49.925      18.235     -15.391
  O      -48.719      17.474     -13.233
  H      -55.435      17.338      -9.132
  H      -47.868      17.724     -13.670
  H      -54.119      11.934     -13.372
  H      -53.401      14.255     -12.886
  H      -55.438      16.611     -11.322
  H      -54.361      15.327      -9.053
  H      -52.165      15.102     -10.101
  H      -52.571      17.975     -11.098
  H      -57.226      10.622     -11.847
  H      -50.311      17.135     -11.470
  H      -56.060      10.358     -13.079
  H      -50.931      15.637     -12.206
  P      -50.457      15.983      -8.417
  C      -49.312      18.292      -8.133
  O      -49.220      16.979      -8.656
  O      -50.251      14.823      -9.499
  O      -50.588      15.447      -7.031
  H      -50.588      13.975      -9.155
  H      -48.320      18.749      -8.170
  H      -49.653      18.273      -7.095
  H      -49.996      18.888      -8.742
  H      -50.042      14.249     -16.080
  H      -49.522      15.798     -16.700
  H      -51.183      15.566     -16.209

 3  4  5  6  7  8  9  10  11  12  13  23  27  28  29  30  32 0
 6-311+G(2d,p)
 ****
 34  35 0
 6-311+G(2d,p)
 ****
 1  2  14  15  16  17  18  19  20  21  22  24  25  26 0
 3-21G
 ****
 31  33  36  37  38  39  40  41  42  43  44  45  46 0
 3-21G
 ****


