%nproc=1
%NoSave
%Mem=1900MB
#P OB98/GEN NMR

erre ene a

0 1
  C       40.396      61.224     -84.800
  O       39.564      61.072     -85.937
  P       38.290      62.011     -86.153
  C       36.893      62.810     -88.229
  O       38.054      62.190     -87.721
  C       36.805      62.539     -89.736
  O       37.625      63.479     -90.459
  C       37.283      61.131     -90.082
  O       36.187      60.233     -90.148
  C       37.977      61.336     -91.415
  O       37.015      61.366     -92.485
  C       38.611      62.735     -91.223
  N       39.901      62.823     -90.513
  C       40.071      63.772     -89.510
  O       39.191      64.544     -89.145
  N       41.322      63.823     -88.947
  C       42.369      63.005     -89.254
  O       43.531      63.213     -88.927
  C       42.047      61.861     -90.112
  C       40.856      61.835     -90.711
  O       38.819      63.449     -85.693
  O       37.058      61.605     -85.413
  H       36.492      62.180     -92.377
  H       38.537      63.644     -84.780
  H       41.494      64.601     -88.318
  H       42.807      61.108     -90.272
  H       40.609      61.017     -91.383
  H       38.738      63.242     -92.186
  H       38.654      60.513     -91.637
  H       38.025      60.791     -89.349
  H       35.766      62.679     -90.060
  H       36.928      63.887     -88.035
  H       36.006      62.418     -87.721
  P       36.389      58.706     -89.715
  C       34.731      56.979     -88.801
  O       35.100      58.343     -88.833
  O       37.706      58.382     -89.091
  O       36.168      57.904     -91.085
  H       37.034      57.694     -91.490
  H       33.965      56.840     -88.036
  H       35.595      56.352     -88.558
  H       34.321      56.685     -89.771
  H       41.189      60.506     -84.839
  H       39.819      61.069     -83.912
  H       40.809      62.211     -84.790

 3  4  5  6  7  8  9  10  11  12  13  23  28  29  30  31  32 0
 6-311+G(2d,p)
 ****
 33  34 0
 6-311+G(2d,p)
 ****
 1  2  14  15  16  17  18  19  20  21  22  24  25  26  27 0
 3-21G
 ****
 35  36  37  38  39  40  41  42  43  44  45 0
 3-21G
 ****


