%nproc=1
%NoSave
%Mem=1900MB
#P OB98/GEN NMR

erre ene a

0 1
  C      -71.028      89.567    -427.287
  O      -70.843      90.226    -426.034
  P      -69.722      91.373    -425.915
  C      -70.864      93.163    -424.469
  O      -69.900      92.122    -424.506
  C      -72.209      92.696    -423.897
  O      -72.019      91.966    -422.655
  C      -73.202      93.834    -423.603
  O      -74.509      93.333    -423.898
  C      -73.026      94.043    -422.114
  O      -74.115      94.746    -421.533
  C      -72.844      92.595    -421.651
  N      -72.250      92.499    -420.330
  C      -73.033      91.942    -419.316
  O      -74.209      91.647    -419.538
  N      -72.471      91.760    -418.074
  C      -71.289      92.235    -417.835
  N      -70.758      92.017    -416.602
  C      -70.505      92.990    -418.829
  C      -71.030      93.062    -420.048
  O      -69.605      92.277    -427.098
  O      -68.376      90.529    -425.698
  H      -74.949      94.281    -421.755
  H      -67.636      90.997    -426.138
  H      -69.559      93.441    -418.556
  H      -70.531      93.587    -420.849
  H      -73.806      92.065    -421.642
  H      -72.114      94.623    -421.929
  H      -73.020      94.732    -424.204
  H      -72.658      92.000    -424.617
  H      -71.317      91.517    -415.919
  H      -71.020      93.545    -425.481
  H      -69.822      92.310    -416.349
  H      -70.461      94.003    -423.889
  P      -75.185      93.697    -425.310
  C      -76.866      91.773    -425.777
  O      -76.668      93.091    -425.320
  O      -74.413      92.696    -426.305
  O      -75.020      95.107    -425.773
  H      -74.432      93.073    -427.206
  H      -77.856      91.435    -425.457
  H      -76.120      91.089    -425.365
  H      -76.827      91.751    -426.871
  H      -71.806      88.838    -427.195
  H      -70.118      89.083    -427.573
  H      -71.299      90.286    -428.031

 3  4  5  6  7  8  9  10  11  12  13  23  27  28  29  30  32 0
 6-311+G(2d,p)
 ****
 34  35 0
 6-311+G(2d,p)
 ****
 1  2  14  15  16  17  18  19  20  21  22  24  25  26 0
 3-21G
 ****
 31  33  36  37  38  39  40  41  42  43  44  45  46 0
 3-21G
 ****


