%nproc=1
%NoSave
%Mem=1900MB
#P OB98/GEN NMR

erre ene a

0 1
  C       69.773      58.647    -212.552
  O       68.858      58.460    -213.610
  H       69.647      59.659    -212.157
  H       70.798      58.541    -212.914
  H       69.588      57.933    -211.746
  P       68.717      57.002    -214.260
  C       66.552      57.909    -215.322
  O       67.736      57.144    -215.518
  C       65.716      57.907    -216.599
  O       65.399      56.550    -216.980
  C       64.374      58.614    -216.457
  O       64.522      60.019    -216.454
  C       63.625      58.045    -217.649
  O       63.965      58.741    -218.854
  C       64.143      56.590    -217.695
  N       63.181      55.647    -217.126
  C       61.953      55.559    -217.770
  O       61.661      56.213    -218.770
  N       61.033      54.728    -217.188
  C       61.175      54.109    -215.979
  O       60.244      53.582    -215.380
  C       62.514      54.188    -215.377
  C       63.438      54.951    -215.961
  O       68.378      55.902    -213.310
  O       70.144      56.759    -214.948
  H       70.676      56.168    -214.382
  H       63.649      58.174    -219.588
  H       60.124      54.692    -217.626
  H       62.688      53.649    -214.453
  H       64.424      55.053    -215.517
  H       64.356      56.291    -218.729
  H       62.545      58.118    -217.517
  H       63.878      58.283    -215.536
  H       66.311      58.358    -217.403
  H       66.835      58.937    -215.074
  H       65.987      57.483    -214.486
  P       63.408      60.948    -215.778
  C       64.893      63.006    -215.373
  O       63.776      62.479    -216.081
  O       63.111      60.648    -214.347
  O       62.107      60.714    -216.684
  H       61.351      60.509    -216.102
  H       65.043      64.028    -215.653
  H       65.768      62.438    -215.613
  H       64.708      62.948    -214.321

 6  7  8  9  10  11  12  13  14  15  16  27  31  32  33  34  35 0
 6-311+G(2d,p)
 ****
 36  37 0
 6-311+G(2d,p)
 ****
 1  2  3  4  5  17  18  19  20  21  22  23  24  25 0
 3-21G
 ****
 26  28  29  30  38  39  40  41  42  43  44  45 0
 3-21G
 ****


