%nproc=1
%NoSave
%Mem=1900MB
#P OB98/GEN NMR

erre ene a

0 1
  C     -182.420    -319.025      16.379
  O     -181.456    -318.122      16.890
  H     -182.876    -318.585      15.488
  H     -183.208    -319.211      17.114
  H     -181.944    -319.970      16.102
  P     -180.756    -318.473      18.288
  C     -181.272    -316.080      19.127
  O     -180.275    -317.069      18.892
  C     -180.637    -314.694      19.166
  O     -179.842    -314.540      20.358
  C     -179.689    -314.437      18.001
  O     -180.408    -314.174      16.813
  C     -178.874    -313.280      18.546
  O     -179.582    -312.039      18.415
  C     -178.727    -313.678      20.032
  N     -177.456    -314.334      20.317
  C     -176.423    -313.504      20.766
  O     -176.611    -312.296      20.908
  N     -175.196    -314.067      21.021
  C     -175.021    -315.341      20.859
  N     -173.783    -315.834      21.130
  C     -176.088    -316.253      20.402
  C     -177.265    -315.687      20.146
  O     -179.696    -319.531      18.267
  O     -181.985    -318.873      19.233
  H     -179.029    -311.369      18.866
  H     -182.165    -319.829      19.172
  H     -175.896    -317.310      20.287
  H     -178.105    -316.285      19.809
  H     -178.810    -312.795      20.677
  H     -177.926    -313.177      18.021
  H     -179.017    -315.291      17.866
  H     -181.437    -313.946      19.195
  H     -173.078    -315.170      21.433
  H     -181.734    -316.309      20.093
  H     -173.554    -316.816      21.126
  H     -182.047    -316.119      18.355
  P     -179.951    -314.823      15.420
  C     -180.658    -312.522      14.489
  O     -180.661    -313.933      14.284
  O     -180.155    -316.296      15.304
  O     -178.414    -314.385      15.306
  H     -177.842    -314.906      15.920
  H     -181.156    -312.042      13.672
  H     -179.648    -312.172      14.547
  H     -181.168    -312.293      15.402

 6  7  8  9  10  11  12  13  14  15  16  26  30  31  32  33  35 0
 6-311+G(2d,p)
 ****
 37  38 0
 6-311+G(2d,p)
 ****
 1  2  3  4  5  17  18  19  20  21  22  23  24  25 0
 3-21G
 ****
 27  28  29  34  36  39  40  41  42  43  44  45  46 0
 3-21G
 ****


