%nproc=1
%NoSave
%Mem=1900MB
#P OB98/GEN NMR

erre ene a

0 1
  C      -18.908     -51.800     127.469
  O      -19.611     -50.802     126.755
  H      -17.921     -51.410     127.732
  H      -18.783     -52.693     126.852
  H      -19.445     -52.051     128.387
  P      -21.080     -51.190     126.241
  C      -22.168     -50.758     128.538
  O      -21.831     -51.731     127.556
  C      -23.685     -50.580     128.615
  O      -24.284     -51.862     128.933
  C      -24.127     -49.581     129.686
  O      -25.240     -48.833     129.200
  C      -24.572     -50.466     130.837
  O      -25.522     -49.823     131.682
  C      -25.109     -51.690     130.098
  N      -27.944     -55.334     132.268
  C      -28.248     -54.358     131.386
  N      -27.424     -53.435     130.845
  C      -26.160     -53.623     131.264
  C      -25.700     -54.571     132.161
  C      -26.660     -55.455     132.681
  N      -26.364     -56.437     133.598
  N      -24.344     -54.414     132.375
  C      -23.990     -53.400     131.610
  N      -25.058     -52.878     130.932
  O      -21.134     -52.094     125.057
  O      -21.743     -49.749     126.035
  H      -25.783     -50.452     132.387
  H      -21.538     -49.151     126.778
  H      -29.289     -54.304     131.080
  H      -22.986     -52.999     131.523
  H      -26.149     -51.563     129.774
  H      -23.703     -50.736     131.451
  H      -23.326     -48.903     129.981
  H      -24.057     -50.294     127.624
  H      -21.700     -49.799     128.294
  H      -27.111     -57.039     133.909
  H      -25.410     -56.555     133.906
  H      -21.777     -51.102     129.500
  P      -25.295     -47.261     129.504
  C      -24.714     -46.635     127.069
  O      -24.361     -46.502     128.442
  O      -25.101     -46.864     130.928
  O      -26.767     -46.865     129.002
  H      -27.137     -46.192     129.605
  H      -24.019     -46.087     126.467
  H      -25.700     -46.250     126.915
  H      -24.688     -47.668     126.792

 6  7  8  9  10  11  12  13  14  15  25  28  32  33  34  35 0
 6-311+G(2d,p)
 ****
 36  39  40 0
 6-311+G(2d,p)
 ****
 1  2  3  4  5  16  17  18  19  20  21  22  23  24 0
 3-21G
 ****
 26  27  29  30  31  37  38  41  42  43  44  45  46  47 0
 3-21G
 ****
 48 0
 3-21G
 ****


