%nproc=1
%NoSave
%Mem=1900MB
#P OB98/GEN NMR

erre ene a

0 1
  C      452.217    -324.767    -261.421
  O      452.651    -325.640    -262.440
  H      453.044    -324.602    -260.727
  H      451.385    -325.219    -260.875
  H      451.908    -323.803    -261.830
  P      451.754    -325.797    -263.756
  C      453.791    -325.209    -265.228
  O      452.440    -324.912    -264.904
  C      454.367    -324.155    -266.180
  O      454.413    -322.877    -265.495
  C      455.804    -324.492    -266.591
  O      456.134    -323.966    -267.873
  C      456.630    -323.778    -265.535
  O      457.966    -323.504    -265.959
  C      455.792    -322.525    -265.288
  N      456.656    -318.352    -262.493
  C      456.750    -318.522    -263.861
  N      457.120    -317.435    -264.577
  N      456.525    -319.657    -264.466
  C      456.234    -320.674    -263.621
  C      456.134    -320.634    -262.248
  C      456.352    -319.364    -261.591
  O      456.304    -319.163    -260.383
  N      455.831    -321.870    -261.734
  C      455.753    -322.655    -262.789
  N      455.965    -321.970    -263.960
  O      450.434    -324.953    -263.416
  O      451.421    -327.203    -264.148
  H      458.359    -322.894    -265.308
  H      449.691    -325.251    -263.969
  H      456.809    -317.448    -262.080
  H      455.530    -323.715    -262.760
  H      456.049    -321.740    -266.009
  H      456.698    -324.425    -264.657
  H      457.489    -316.608    -264.133
  H      456.002    -325.561    -266.585
  H      457.493    -317.614    -265.512
  H      453.705    -324.028    -267.044
  H      453.798    -326.195    -265.698
  H      454.393    -325.279    -264.320
  P      455.699    -324.789    -269.174
  C      453.824    -323.114    -270.002
  O      454.204    -324.406    -269.583
  O      455.578    -326.292    -268.650
  O      456.648    -324.672    -270.325
  H      456.245    -326.858    -269.082
  H      452.777    -323.104    -270.221
  H      454.374    -322.848    -270.880
  H      454.033    -322.411    -269.223

 6  7  8  9  10  11  12  13  14  15  26  29  33  34 0
 6-311+G(2d,p)
 ****
 36  38  39  40  41 0
 6-311+G(2d,p)
 ****
 1  2  3  4  5  16  17  18  19  20  21  22  23  24  25 0
 3-21G
 ****
 27  28  30  31  32  35  37  42  43  44  45  46  47 0
 3-21G
 ****
 48  49 0
 3-21G
 ****


