%nproc=1
%NoSave
%Mem=1900MB
#P OB98/GEN NMR

erre ene a

0 1
  C      651.819     194.483     -66.480
  O      650.772     193.592     -66.175
  P      650.840     192.061     -66.645
  C      649.307     191.278     -68.560
  O      650.450     192.053     -68.206
  C      648.033     191.964     -68.064
  O      648.144     193.405     -68.160
  C      646.791     191.626     -68.878
  O      646.328     190.293     -68.832
  C      645.831     192.715     -68.419
  O      645.226     192.376     -67.169
  C      646.791     193.921     -68.249
  N      646.646     194.888     -69.333
  C      645.883     196.018     -69.046
  O      645.350     196.218     -67.950
  N      645.721     196.908     -70.075
  C      646.197     196.759     -71.349
  O      645.974     197.579     -72.226
  C      646.977     195.543     -71.596
  C      647.164     194.678     -70.597
  O      650.057     191.101     -65.806
  O      652.410     191.757     -66.688
  H      645.918     191.991     -66.599
  H      652.920     192.324     -67.300
  H      645.164     197.723     -69.890
  H      647.387     195.401     -72.589
  H      647.737     193.763     -70.753
  H      646.591     194.435     -67.299
  H      645.020     192.875     -69.140
  H      647.013     191.823     -69.939
  H      647.900     191.713     -67.012
  H      649.383     190.287     -68.097
  H      649.290     191.142     -69.654
  P      645.563     189.582     -70.054
  C      642.995     189.571     -69.658
  O      644.112     190.257     -70.194
  O      645.642     188.097     -70.123
  O      646.335     190.207     -71.322
  H      646.333     189.551     -72.048
  H      642.092     190.149     -69.884
  H      643.090     189.479     -68.577
  H      642.897     188.584     -70.114
  H      651.591     195.451     -66.084
  H      651.933     194.550     -67.542
  H      652.729     194.126     -66.046

 3  4  5  6  7  8  9  10  11  12  13  23  28  29  30  31  32 0
 6-311+G(2d,p)
 ****
 33  34 0
 6-311+G(2d,p)
 ****
 1  2  14  15  16  17  18  19  20  21  22  24  25  26  27 0
 3-21G
 ****
 35  36  37  38  39  40  41  42  43  44  45 0
 3-21G
 ****


