%nproc=1
%NoSave
%Mem=1900MB
#P OB98/GEN NMR

erre ene a

0 1
  C     -177.054      20.687     115.275
  O     -177.760      21.218     114.155
  P     -178.026      20.266     112.894
  C     -176.578      19.246     110.925
  O     -176.655      19.988     112.123
  C     -175.229      19.528     110.239
  O     -175.145      20.916     109.845
  C     -174.025      19.244     111.138
  O     -173.623      17.888     111.076
  C     -172.990      20.211     110.588
  O     -172.419      19.693     109.371
  C     -173.863      21.453     110.290
  N     -174.110      22.411     111.388
  C     -173.241      23.485     111.578
  O     -172.250      23.704     110.887
  N     -173.552      24.336     112.608
  C     -174.704      24.331     113.343
  O     -174.958      25.154     114.215
  C     -175.657      23.266     113.003
  C     -175.320      22.369     112.074
  O     -178.851      21.192     111.886
  O     -178.759      19.000     113.220
  H     -171.716      20.308     109.098
  H     -179.751      20.838     111.758
  H     -172.897      25.079     112.808
  H     -176.604      23.250     113.527
  H     -176.019      21.576     111.814
  H     -173.442      22.028     109.455
  H     -172.162      20.338     111.282
  H     -174.246      19.541     112.169
  H     -175.166      18.914     109.330
  H     -177.399      19.506     110.251
  H     -176.674      18.179     111.147
  P     -174.147      16.850     112.178
  C     -173.160      15.813     114.310
  O     -172.998      16.795     113.299
  O     -174.617      15.530     111.664
  O     -175.320      17.656     112.925
  H     -176.199      17.420     112.549
  H     -172.246      15.771     114.907
  H     -173.337      14.829     113.862
  H     -173.997      16.083     114.957
  H     -176.959      21.442     116.027
  H     -176.081      20.368     114.965
  H     -177.593      19.852     115.673

 3  4  5  6  7  8  9  10  11  12  13  23  28  29  30  31  32 0
 6-311+G(2d,p)
 ****
 33  34 0
 6-311+G(2d,p)
 ****
 1  2  14  15  16  17  18  19  20  21  22  24  25  26  27 0
 3-21G
 ****
 35  36  37  38  39  40  41  42  43  44  45 0
 3-21G
 ****


