%nproc=1
%NoSave
%Mem=1900MB
#P OB98/GEN NMR

erre ene a

0 1
  C      421.809    -177.873     117.501
  O      420.856    -176.935     117.955
  H      422.489    -178.105     118.322
  H      422.382    -177.447     116.677
  H      421.324    -178.800     117.180
  P      419.566    -176.636     117.053
  C      417.722    -178.295     116.343
  O      418.486    -177.769     117.420
  C      416.806    -179.426     116.825
  O      417.637    -180.506     117.349
  C      415.835    -179.015     117.936
  O      414.653    -179.818     117.796
  C      416.599    -179.422     119.180
  O      415.753    -179.512     120.310
  C      417.235    -180.735     118.713
  N      418.353    -181.150     119.562
  C      418.052    -182.021     120.602
  O      416.910    -182.406     120.851
  N      419.101    -182.393     121.386
  C      420.390    -181.948     121.278
  O      421.285    -182.293     122.034
  C      420.645    -180.996     120.180
  C      419.625    -180.648     119.383
  O      419.822    -176.466     115.592
  O      418.923    -175.323     117.703
  H      415.016    -180.135     120.139
  H      418.466    -174.798     117.016
  H      418.905    -183.032     122.151
  H      421.644    -180.613     120.068
  H      419.777    -179.953     118.563
  H      416.497    -181.545     118.712
  H      417.373    -178.685     119.419
  H      415.578    -177.955     117.919
  H      416.269    -179.834     115.959
  H      418.411    -178.667     115.584
  H      417.113    -177.490     115.901
  P      413.180    -179.178     117.798
  C      411.801    -177.775     116.129
  O      412.779    -178.806     116.287
  O      413.004    -178.062     118.770
  O      412.204    -180.398     118.153
  H      411.405    -180.061     118.596
  H      411.616    -177.615     115.087
  H      412.163    -176.870     116.570
  H      410.892    -178.068     116.612

 6  7  8  9  10  11  12  13  14  15  16  26  31  32  33  34  35 0
 6-311+G(2d,p)
 ****
 36  37 0
 6-311+G(2d,p)
 ****
 1  2  3  4  5  17  18  19  20  21  22  23  24  25 0
 3-21G
 ****
 27  28  29  30  38  39  40  41  42  43  44  45 0
 3-21G
 ****


