%nproc=1
%NoSave
%Mem=1900MB
#P OB98/GEN NMR

erre ene a

0 1
  C        8.814       6.512    -125.150
  O        8.762       6.926    -126.516
  P        8.968       5.768    -127.609
  C        7.707       7.008    -129.505
  O        8.937       6.460    -129.058
  C        7.354       8.278    -128.723
  O        8.528       9.133    -128.574
  C        6.261       9.128    -129.390
  O        5.490       9.711    -128.331
  C        7.078      10.188    -130.110
  O        6.312      11.314    -130.504
  C        8.156      10.440    -129.064
  N       10.432      14.994    -129.377
  C        9.273      14.600    -128.806
  N        8.731      13.365    -128.769
  C        9.526      12.485    -129.402
  C       10.734      12.736    -130.034
  C       11.190      14.065    -130.007
  N       12.358      14.480    -130.604
  N       11.243      11.574    -130.595
  C       10.314      10.665    -130.361
  N        9.306      11.146    -129.578
  O        7.597       4.946    -127.546
  O       10.160       4.907    -127.350
  H        5.704      11.571    -129.782
  H        7.706       4.141    -127.007
  H        8.701      15.385    -128.317
  H       10.325       9.650    -130.734
  H        7.777      11.018    -128.210
  H        7.514       9.754    -131.017
  H        5.597       8.556    -130.044
  H        7.035       7.985    -127.715
  H        6.904       6.278    -129.380
  H       12.599      15.456    -130.534
  H       12.945      13.821    -131.092
  H        7.775       7.210    -130.579
  P        4.265       8.875    -127.716
  C        4.671       9.611    -125.293
  O        3.821       9.710    -126.419
  O        5.054       7.652    -127.044
  O        3.198       8.466    -128.673
  H        5.790       7.968    -126.491
  H        4.301      10.284    -124.515
  H        5.690       9.902    -125.560
  H        4.662       8.587    -124.908
  H        8.665       7.360    -124.514
  H        9.770       6.076    -124.945
  H        8.046       5.790    -124.967

 3  4  5  6  7  8  9  10  11  12  22  25  29  30  31  32 0
 6-311+G(2d,p)
 ****
 33  36  37 0
 6-311+G(2d,p)
 ****
 1  2  13  14  15  16  17  18  19  20  21  23  24  26 0
 3-21G
 ****
 27  28  34  35  38  39  40  41  42  43  44  45  46  47  48 0
 3-21G
 ****


