%nproc=1
%NoSave
%Mem=1900MB
#P OB98/GEN NMR

erre ene a

0 1
  C      329.402    -200.242     282.916
  O      330.613    -199.749     282.381
  P      331.276    -198.431     282.992
  C      330.455    -196.035     283.441
  O      330.341    -197.184     282.611
  C      330.021    -194.782     282.675
  O      328.579    -194.731     282.578
  C      330.433    -193.475     283.351
  O      331.806    -193.211     283.150
  C      329.493    -192.491     282.677
  O      329.991    -192.101     281.384
  C      328.207    -193.333     282.508
  N      325.431    -189.650     284.703
  C      326.456    -189.604     283.808
  N      327.167    -190.635     283.310
  C      326.754    -191.803     283.826
  C      325.743    -191.995     284.764
  C      325.051    -190.856     285.190
  N      323.967    -190.887     286.036
  N      325.630    -193.345     285.070
  C      326.561    -193.941     284.340
  N      327.208    -193.050     283.526
  O      332.733    -198.241     282.697
  O      331.037    -198.586     284.573
  H      330.906    -191.773     281.513
  H      331.906    -198.601     285.036
  H      326.736    -188.615     283.462
  H      326.771    -194.998     284.353
  H      327.742    -193.181     281.531
  H      329.342    -191.576     283.254
  H      330.201    -193.520     284.424
  H      330.439    -194.840     281.663
  H      331.500    -195.930     283.755
  H      323.457    -190.028     286.159
  H      323.481    -191.779     286.167
  H      329.829    -196.176     284.340
  P      332.542    -192.079     284.013
  C      332.521    -189.518     284.120
  O      332.088    -190.668     283.412
  O      334.008    -192.261     284.210
  O      331.764    -192.129     285.423
  H      332.383    -191.902     286.140
  H      331.890    -189.382     285.004
  H      332.428    -188.638     283.470
  H      333.566    -189.611     284.426
  H      329.111    -201.125     282.386
  H      328.639    -199.498     282.817
  H      329.539    -200.477     283.951

 3  4  5  6  7  8  9  10  11  12  22  25  29  30  31  32 0
 6-311+G(2d,p)
 ****
 33  36  37 0
 6-311+G(2d,p)
 ****
 1  2  13  14  15  16  17  18  19  20  21  23  24  26 0
 3-21G
 ****
 27  28  34  35  38  39  40  41  42  43  44  45  46  47  48 0
 3-21G
 ****


