%nproc=1
%NoSave
%Mem=1900MB
#P OB98/GEN NMR

erre ene a

0 1
  C      113.653     142.239      21.669
  O      112.377     141.639      21.654
  P      111.064     142.522      21.397
  C      110.008     144.546      22.588
  O      110.851     143.406      22.721
  C      109.267     144.807      23.895
  O      108.315     143.747      24.177
  C      110.165     144.838      25.124
  O      111.100     145.891      25.218
  C      109.143     144.715      26.242
  O      108.533     145.972      26.531
  C      108.111     143.744      25.612
  N      108.217     142.398      26.172
  C      107.415     142.134      27.278
  O      106.654     142.961      27.780
  N      107.538     140.883      27.820
  C      108.399     139.909      27.402
  O      108.489     138.824      27.963
  C      109.230     140.252      26.240
  C      109.106     141.461      25.684
  O      109.859     141.757      20.963
  O      111.557     143.615      20.336
  H      109.247     146.603      26.747
  H      112.290     144.179      20.642
  H      106.975     140.675      28.630
  H      109.915     139.496      25.875
  H      109.711     141.737      24.827
  H      107.090     144.108      25.785
  H      109.598     144.356      27.171
  H      110.761     143.916      25.133
  H      108.696     145.732      23.789
  H      109.277     144.356      21.795
  H      110.608     145.412      22.289
  P      112.666     145.659      25.454
  C      114.095     144.562      27.318
  O      112.885     145.201      26.975
  O      113.587     146.701      24.910
  O      112.911     144.284      24.660
  H      113.819     144.279      24.304
  H      114.054     144.281      28.375
  H      114.942     145.240      27.170
  H      114.234     143.654      26.722
  H      114.396     141.492      21.854
  H      113.690     142.979      22.441
  H      113.841     142.702      20.723

 3  4  5  6  7  8  9  10  11  12  13  23  28  29  30  31  32 0
 6-311+G(2d,p)
 ****
 33  34 0
 6-311+G(2d,p)
 ****
 1  2  14  15  16  17  18  19  20  21  22  24  25  26  27 0
 3-21G
 ****
 35  36  37  38  39  40  41  42  43  44  45 0
 3-21G
 ****


