%nproc=1
%NoSave
%Mem=1900MB
#P OB98/GEN NMR

erre ene a

0 1
  C     -516.208     643.295     367.343
  O     -515.310     643.398     366.251
  H     -515.637     643.342     368.272
  H     -516.734     642.337     367.303
  H     -516.926     644.118     367.327
  P     -515.968     643.527     364.791
  C     -515.401     646.087     364.913
  O     -515.377     644.882     364.171
  C     -514.613     647.183     364.199
  O     -514.930     648.463     364.803
  C     -513.092     646.997     364.272
  O     -512.520     647.450     363.045
  C     -512.682     647.932     365.400
  O     -511.310     648.311     365.305
  C     -513.693     649.078     365.224
  N     -513.864     649.860     366.445
  C     -513.843     651.251     366.303
  O     -513.674     651.763     365.196
  N     -513.977     652.034     367.425
  C     -514.053     651.476     368.594
  N     -514.158     652.305     369.668
  C     -514.035     650.014     368.790
  C     -513.949     649.272     367.690
  O     -517.485     643.893     365.143
  O     -515.812     642.313     363.933
  H     -511.143     648.655     364.400
  H     -517.565     644.568     365.843
  H     -514.090     649.592     369.790
  H     -513.938     648.191     367.738
  H     -513.367     649.750     364.421
  H     -512.825     647.440     366.366
  H     -512.806     645.958     364.454
  H     -514.952     647.229     363.158
  H     -514.143     653.305     369.488
  H     -514.980     645.930     365.916
  H     -514.166     651.984     370.623
  H     -516.450     646.391     365.033
  P     -512.069     646.381     361.941
  C     -514.319     645.645     360.898
  O     -513.122     646.394     360.732
  O     -511.706     645.033     362.455
  O     -510.782     647.084     361.277
  H     -510.107     646.387     361.134
  H     -514.925     645.742     360.021
  H     -514.857     646.015     361.746
  H     -514.076     644.614     361.051

 6  7  8  9  10  11  12  13  14  15  16  26  30  31  32  33  35 0
 6-311+G(2d,p)
 ****
 37  38 0
 6-311+G(2d,p)
 ****
 1  2  3  4  5  17  18  19  20  21  22  23  24  25 0
 3-21G
 ****
 27  28  29  34  36  39  40  41  42  43  44  45  46 0
 3-21G
 ****


