%nproc=1
%NoSave
%Mem=1900MB
#P OB98/GEN NMR

erre ene a

0 1
  C      141.164    -512.049     144.630
  O      140.526    -511.349     143.581
  H      142.192    -512.269     144.330
  H      140.645    -512.991     144.833
  H      141.183    -511.433     145.533
  P      138.986    -510.961     143.809
  C      139.912    -508.598     143.365
  O      139.017    -509.387     144.139
  C      139.281    -507.238     143.043
  O      138.114    -507.458     142.214
  C      138.832    -506.467     144.286
  O      139.088    -505.076     144.096
  C      137.333    -506.705     144.330
  O      136.636    -505.670     145.019
  C      136.991    -506.816     142.843
  N      132.150    -507.401     144.345
  C      133.079    -506.463     144.639
  N      134.347    -506.376     144.179
  C      134.603    -507.362     143.300
  C      133.759    -508.384     142.908
  C      132.473    -508.387     143.482
  N      131.530    -509.347     143.214
  N      134.400    -509.228     142.021
  C      135.607    -508.712     141.866
  N      135.781    -507.592     142.635
  O      138.245    -511.805     144.791
  O      138.417    -510.988     142.314
  H      136.864    -504.814     144.603
  H      139.030    -510.553     141.692
  H      132.772    -505.688     145.334
  H      136.388    -509.116     141.230
  H      136.837    -505.837     142.374
  H      137.123    -507.653     144.846
  H      139.325    -506.814     145.194
  H      139.991    -506.652     142.445
  H      140.159    -509.114     142.429
  H      130.627    -509.269     143.657
  H      131.747    -510.086     142.553
  H      140.832    -508.460     143.941
  P      139.185    -504.136     145.390
  C      141.403    -502.966     144.769
  O      140.734    -503.828     145.687
  O      138.380    -504.565     146.573
  O      138.662    -502.727     144.829
  H      138.133    -502.283     145.521
  H      142.421    -502.841     145.075
  H      140.915    -502.014     144.754
  H      141.375    -503.397     143.790

 6  7  8  9  10  11  12  13  14  15  25  28  32  33  34  35 0
 6-311+G(2d,p)
 ****
 36  39  40 0
 6-311+G(2d,p)
 ****
 1  2  3  4  5  16  17  18  19  20  21  22  23  24 0
 3-21G
 ****
 26  27  29  30  31  37  38  41  42  43  44  45  46  47 0
 3-21G
 ****
 48 0
 3-21G
 ****


