%nproc=1
%NoSave
%Mem=1900MB
#P OB98/GEN NMR

erre ene a

0 1
  C       -3.711    -104.452     -19.589
  O       -4.514    -103.330     -19.886
  H       -4.185    -105.342     -20.012
  H       -3.629    -104.583     -18.507
  H       -2.716    -104.344     -20.027
  P       -3.981    -101.870     -19.494
  C       -3.813    -100.463     -17.343
  O       -4.224    -101.696     -17.919
  C       -3.583    -100.640     -15.845
  O       -2.427    -101.474     -15.611
  C       -3.311     -99.336     -15.104
  O       -4.504     -98.599     -14.926
  C       -2.679     -99.869     -13.827
  O       -3.681    -100.351     -12.919
  C       -1.828    -101.041     -14.368
  N       -0.422    -100.682     -14.558
  C        0.505    -101.431     -13.841
  O        0.190    -102.345     -13.081
  N        1.815    -101.061     -13.991
  C        2.262     -99.984     -14.700
  O        3.412     -99.561     -14.631
  C        1.248     -99.277     -15.495
  C       -0.030     -99.642     -15.378
  O       -4.482    -100.748     -20.340
  O       -2.388    -102.014     -19.595
  H       -2.083    -101.626     -20.437
  H       -3.218    -100.569     -12.086
  H        2.491    -101.568     -13.439
  H        1.573     -98.456     -16.122
  H       -0.799     -99.115     -15.932
  H       -1.871    -101.896     -13.680
  H       -2.107     -99.106     -13.296
  H       -2.565     -98.744     -15.646
  H       -4.458    -101.151     -15.423
  H       -4.603     -99.722     -17.505
  H       -2.899    -100.122     -17.840
  P       -4.497     -97.178     -14.192
  C       -4.131     -96.338     -11.800
  O       -4.530     -97.434     -12.610
  O       -5.520     -96.208     -14.683
  O       -3.016     -96.617     -14.434
  H       -3.074     -95.723     -14.824
  H       -4.190     -96.617     -10.769
  H       -4.778     -95.506     -11.982
  H       -3.124     -96.066     -12.039

 6  7  8  9  10  11  12  13  14  15  16  27  31  32  33  34  35 0
 6-311+G(2d,p)
 ****
 36  37 0
 6-311+G(2d,p)
 ****
 1  2  3  4  5  17  18  19  20  21  22  23  24  25 0
 3-21G
 ****
 26  28  29  30  38  39  40  41  42  43  44  45 0
 3-21G
 ****


