%nproc=1
%NoSave
%Mem=1900MB
#P OB98/GEN NMR

erre ene a

0 1
  C     -467.640    -914.120    -267.351
  O     -466.905    -915.309    -267.517
  H     -468.134    -913.880    -268.291
  H     -466.968    -913.301    -267.086
  H     -468.405    -914.233    -266.575
  P     -466.312    -916.051    -266.223
  C     -464.098    -914.750    -266.429
  O     -465.202    -915.062    -265.602
  C     -463.031    -913.978    -265.638
  O     -463.262    -914.194    -264.214
  C     -461.583    -914.415    -265.942
  O     -460.748    -913.274    -265.771
  C     -461.335    -915.431    -264.839
  O     -459.951    -915.676    -264.672
  C     -462.054    -914.765    -263.667
  N     -462.322    -915.692    -262.566
  C     -461.856    -915.322    -261.307
  O     -461.217    -914.286    -261.105
  N     -462.092    -916.206    -260.299
  C     -462.712    -917.418    -260.427
  O     -462.867    -918.187    -259.485
  C     -463.137    -917.781    -261.789
  C     -462.940    -916.900    -262.784
  O     -465.853    -917.450    -266.437
  O     -467.502    -915.967    -265.146
  H     -459.537    -915.904    -265.538
  H     -467.467    -916.736    -264.551
  H     -461.774    -915.949    -259.377
  H     -463.607    -918.740    -261.928
  H     -463.246    -917.138    -263.790
  H     -461.449    -913.933    -263.258
  H     -461.809    -916.392    -265.079
  H     -461.464    -914.836    -266.943
  H     -463.166    -912.907    -265.817
  H     -464.457    -914.128    -267.260
  H     -463.664    -915.676    -266.832
  P     -460.308    -912.340    -266.999
  C     -457.785    -912.264    -266.477
  O     -458.786    -912.687    -267.389
  O     -460.573    -910.884    -266.797
  O     -461.153    -912.897    -268.249
  H     -461.298    -912.171    -268.892
  H     -456.822    -912.551    -266.845
  H     -457.954    -912.722    -265.525
  H     -457.824    -911.200    -266.373

 6  7  8  9  10  11  12  13  14  15  16  26  31  32  33  34  35 0
 6-311+G(2d,p)
 ****
 36  37 0
 6-311+G(2d,p)
 ****
 1  2  3  4  5  17  18  19  20  21  22  23  24  25 0
 3-21G
 ****
 27  28  29  30  38  39  40  41  42  43  44  45 0
 3-21G
 ****


