%nproc=1
%NoSave
%Mem=1900MB
#P OB98/GEN NMR

erre ene a

0 1
  C      108.733      31.926     -54.825
  O      108.521      32.020     -53.432
  H      109.809      31.956     -55.016
  H      108.265      32.769     -55.337
  H      108.336      30.986     -55.216
  P      107.030      31.865     -52.865
  C      107.621      29.968     -51.225
  O      106.875      30.346     -52.375
  C      106.765      29.091     -50.316
  O      107.542      28.627     -49.190
  C      105.560      29.811     -49.720
  O      104.539      29.966     -50.684
  C      105.227      28.882     -48.563
  O      104.502      27.729     -49.019
  C      106.637      28.477     -48.074
  N      107.085      29.261     -46.922
  C      107.589      28.538     -45.847
  O      107.663      27.312     -45.834
  N      107.968      29.277     -44.757
  C      107.806      30.624     -44.612
  O      107.953      31.211     -43.545
  C      107.340      31.343     -45.807
  C      106.991      30.638     -46.885
  O      105.942      32.354     -53.761
  O      107.066      32.682     -51.487
  H      106.657      33.558     -51.622
  H      105.148      27.164     -49.486
  H      108.291      28.758     -43.953
  H      107.260      32.421     -45.754
  H      106.615      31.145     -47.767
  H      106.655      27.417     -47.791
  H      104.610      29.368     -47.805
  H      105.866      30.783     -49.316
  H      106.446      28.212     -50.891
  H      107.913      30.876     -50.685
  H      108.523      29.436     -51.542
  P      103.088      30.501     -50.274
  C      103.195      32.952     -51.011
  O      103.216      32.056     -49.909
  O      102.378      29.681     -49.248
  O      102.272      30.521     -51.652
  H      101.440      30.021     -51.538
  H      103.286      33.957     -50.655
  H      102.272      32.844     -51.541
  H      104.011      32.730     -51.667

 6  7  8  9  10  11  12  13  14  15  16  27  31  32  33  34  35 0
 6-311+G(2d,p)
 ****
 36  37 0
 6-311+G(2d,p)
 ****
 1  2  3  4  5  17  18  19  20  21  22  23  24  25 0
 3-21G
 ****
 26  28  29  30  38  39  40  41  42  43  44  45 0
 3-21G
 ****


