%nproc=1
%NoSave
%Mem=1900MB
#P OB98/GEN NMR

erre ene a

0 1
  C      227.553    -230.678     368.600
  O      227.873    -232.034     368.952
  P      227.074    -233.238     368.241
  C      225.440    -235.146     368.943
  O      226.032    -233.897     369.267
  C      223.937    -235.150     369.267
  O      223.731    -235.002     370.706
  C      223.135    -234.028     368.583
  O      221.825    -234.549     368.320
  C      223.064    -232.968     369.672
  O      222.026    -232.027     369.466
  C      222.883    -233.854     370.904
  N      223.191    -233.191     372.177
  C      222.618    -233.702     373.336
  O      221.825    -234.640     373.360
  N      222.970    -233.065     374.499
  C      223.788    -231.980     374.610
  O      224.036    -231.438     375.675
  C      224.336    -231.464     373.345
  C      224.018    -232.086     372.208
  O      228.204    -234.370     368.127
  O      226.522    -232.923     366.886
  H      221.178    -232.499     369.571
  H      228.189    -234.759     367.238
  H      222.580    -233.433     375.352
  H      224.990    -230.601     373.393
  H      224.423    -231.729     371.267
  H      221.848    -234.226     370.936
  H      224.014    -232.417     369.697
  H      223.598    -233.670     367.660
  H      223.532    -236.129     368.991
  H      225.926    -235.937     369.517
  H      225.597    -235.348     367.876
  P      221.364    -234.700     366.783
  C      220.516    -233.040     364.949
  O      220.879    -233.253     366.292
  O      219.988    -235.501     366.977
  O      222.342    -235.404     365.911
  H      219.434    -235.136     367.692
  H      219.940    -233.873     364.546
  H      221.421    -232.893     364.343
  H      219.904    -232.133     364.887
  H      228.172    -230.009     369.160
  H      226.525    -230.485     368.824
  H      227.724    -230.531     367.554

 3  4  5  6  7  8  9  10  11  12  13  23  28  29  30  31  32 0
 6-311+G(2d,p)
 ****
 33  34 0
 6-311+G(2d,p)
 ****
 1  2  14  15  16  17  18  19  20  21  22  24  25  26 0
 3-21G
 ****
 27  35  36  37  38  39  40  41  42  43  44  45 0
 3-21G
 ****


