%nproc=1
%NoSave
%Mem=1900MB
#P OB98/GEN NMR

erre ene a

0 1
  C      272.063    -370.268    1166.709
  O      270.899    -370.106    1167.496
  H      272.660    -371.075    1167.131
  H      272.658    -369.347    1166.732
  H      271.807    -370.520    1165.672
  P      269.763    -369.085    1167.007
  C      269.964    -367.021    1165.459
  O      270.520    -367.739    1166.566
  C      271.020    -366.089    1164.883
  O      272.183    -366.835    1164.460
  C      270.546    -365.329    1163.633
  O      269.688    -364.269    1163.984
  C      271.867    -364.905    1163.028
  O      272.386    -363.740    1163.696
  C      272.763    -366.133    1163.335
  N      272.909    -367.029    1162.177
  C      274.064    -366.877    1161.424
  O      274.918    -366.029    1161.668
  N      274.204    -367.718    1160.344
  C      273.233    -368.594    1159.904
  O      273.372    -369.268    1158.886
  C      272.030    -368.702    1160.725
  C      271.912    -367.913    1161.802
  O      268.619    -368.890    1167.938
  O      269.291    -369.694    1165.603
  H      272.694    -364.054    1164.579
  H      268.414    -370.131    1165.724
  H      275.029    -367.619    1159.778
  H      271.260    -369.393    1160.406
  H      271.022    -367.971    1162.422
  H      273.768    -365.810    1163.648
  H      271.791    -364.675    1161.975
  H      270.044    -366.030    1162.933
  H      271.332    -365.381    1165.664
  H      269.110    -366.438    1165.821
  H      269.615    -367.745    1164.719
  P      268.424    -363.923    1163.051
  C      267.998    -362.751    1160.803
  O      268.940    -363.012    1161.840
  O      267.226    -363.402    1163.766
  O      268.092    -365.326    1162.339
  H      267.177    -365.600    1162.580
  H      268.453    -362.137    1160.054
  H      267.149    -362.245    1161.212
  H      267.685    -363.675    1160.364

 6  7  8  9  10  11  12  13  14  15  16  26  31  32  33  34  35 0
 6-311+G(2d,p)
 ****
 36  37 0
 6-311+G(2d,p)
 ****
 1  2  3  4  5  17  18  19  20  21  22  23  24  25 0
 3-21G
 ****
 27  28  29  30  38  39  40  41  42  43  44  45 0
 3-21G
 ****


