%nproc=1
%NoSave
%Mem=1900MB
#P OB98/GEN NMR

erre ene a

0 1
  C     -290.832      63.047    1015.746
  O     -292.000      63.004    1016.571
  P     -293.325      63.697    1015.994
  C     -293.011      66.014    1017.110
  O     -293.073      65.280    1015.896
  C     -292.762      67.511    1016.857
  O     -293.903      68.120    1016.192
  C     -292.499      68.324    1018.132
  O     -291.579      69.368    1017.802
  C     -293.860      68.944    1018.428
  O     -293.748      70.076    1019.288
  C     -294.327      69.234    1016.999
  N     -298.242      72.236    1018.359
  C     -296.913      72.329    1018.573
  N     -295.941      71.469    1018.194
  C     -296.462      70.449    1017.486
  C     -297.788      70.221    1017.189
  C     -298.719      71.171    1017.665
  N     -300.077      71.069    1017.470
  N     -297.939      69.042    1016.484
  C     -296.705      68.569    1016.368
  N     -295.784      69.404    1016.932
  O     -294.374      63.555    1017.198
  O     -293.850      63.046    1014.735
  H     -293.692      69.748    1020.203
  H     -295.050      62.876    1016.972
  H     -296.593      73.206    1019.137
  H     -296.439      67.629    1015.884
  H     -293.880      70.151    1016.589
  H     -294.512      68.201    1018.911
  H     -292.115      67.744    1018.977
  H     -291.905      67.614    1016.181
  H     -292.184      65.621    1017.747
  H     -300.667      71.766    1017.862
  H     -300.451      70.245    1016.999
  H     -293.933      65.851    1017.687
  P     -290.032      69.085    1018.095
  C     -289.296      69.196    1020.597
  O     -289.969      68.459    1019.588
  O     -289.405      70.549    1018.270
  O     -289.342      68.291    1017.034
  H     -288.449      70.532    1018.055
  H     -289.876      69.130    1021.529
  H     -289.196      70.258    1020.344
  H     -288.301      68.781    1020.766
  H     -290.025      62.553    1016.245
  H     -290.565      64.066    1015.559
  H     -291.033      62.554    1014.818

 3  4  5  6  7  8  9  10  11  12  22  25  29  30  31  32 0
 6-311+G(2d,p)
 ****
 33  36  37 0
 6-311+G(2d,p)
 ****
 1  2  13  14  15  16  17  18  19  20  21  23  24  26 0
 3-21G
 ****
 27  28  34  35  38  39  40  41  42  43  44  45  46  47  48 0
 3-21G
 ****


