%nproc=1
%NoSave
%Mem=1900MB
#P OB98/GEN NMR

erre ene a

0 1
  C      -89.287    -348.987      79.963
  O      -88.071    -348.712      79.301
  H      -89.980    -348.164      79.772
  H      -89.126    -349.063      81.041
  H      -89.731    -349.912      79.585
  P      -86.875    -349.775      79.426
  C      -86.069    -349.492      76.980
  O      -86.694    -350.339      77.930
  C      -86.740    -349.640      75.619
  O      -88.168    -349.450      75.714
  C      -86.292    -348.629      74.567
  O      -84.994    -348.876      74.053
  C      -87.376    -348.836      73.526
  O      -87.129    -350.056      72.806
  C      -88.629    -348.955      74.425
  N      -89.332    -347.683      74.584
  C      -90.195    -347.311      73.546
  O      -90.332    -348.026      72.556
  N      -90.861    -346.113      73.638
  C      -90.665    -345.342      74.663
  N      -91.345    -344.163      74.699
  C      -89.750    -345.687      75.770
  C      -89.125    -346.858      75.667
  O      -87.029    -350.813      80.488
  O      -85.558    -348.879      79.592
  H      -87.830    -350.136      72.135
  H      -84.788    -349.491      79.685
  H      -89.598    -344.998      76.586
  H      -88.433    -347.178      76.437
  H      -89.328    -349.698      74.022
  H      -87.426    -348.031      72.790
  H      -86.369    -347.605      74.953
  H      -86.575    -350.671      75.280
  H      -91.964    -343.953      73.928
  H      -85.009    -349.761      76.926
  H      -91.195    -343.469      75.421
  H      -86.154    -348.447      77.295
  P      -83.920    -347.686      74.182
  C      -81.888    -349.287      74.534
  O      -82.715    -348.266      75.065
  O      -84.648    -346.647      75.155
  O      -83.496    -347.068      72.889
  H      -85.062    -345.925      74.640
  H      -81.142    -349.552      75.254
  H      -81.414    -348.934      73.642
  H      -82.484    -350.146      74.306

 6  7  8  9  10  11  12  13  14  15  16  26  30  31  32  33  35 0
 6-311+G(2d,p)
 ****
 37  38 0
 6-311+G(2d,p)
 ****
 1  2  3  4  5  17  18  19  20  21  22  23  24  25 0
 3-21G
 ****
 27  28  29  34  36  39  40  41  42  43  44  45  46 0
 3-21G
 ****


