%nproc=1
%NoSave
%Mem=1900MB
#P OB98/GEN NMR

erre ene a

0 1
  C       71.963      90.520    -236.568
  O       71.507      89.391    -235.847
  P       70.545      89.566    -234.581
  C       72.337      88.594    -233.031
  O       70.993      88.484    -233.479
  C       72.919      87.226    -232.673
  O       72.100      86.622    -231.630
  C       72.978      86.229    -233.840
  O       74.143      85.423    -233.634
  C       71.731      85.382    -233.621
  O       71.798      84.120    -234.271
  C       71.714      85.315    -232.098
  N       68.975      81.751    -229.656
  C       70.257      81.766    -230.081
  N       70.908      82.743    -230.749
  C       70.094      83.789    -230.964
  C       68.758      83.911    -230.617
  C       68.196      82.831    -229.912
  N       66.902      82.813    -229.439
  N       68.247      85.114    -231.064
  C       69.258      85.709    -231.664
  N       70.411      84.971    -231.576
  O       69.084      89.571    -234.888
  O       71.003      90.953    -233.930
  H       72.059      84.264    -235.201
  H       70.338      91.643    -234.120
  H       70.840      80.878    -229.855
  H       69.210      86.657    -232.183
  H       72.436      84.588    -231.708
  H       70.855      85.917    -234.006
  H       72.999      86.699    -234.825
  H       73.915      87.379    -232.248
  H       72.344      89.232    -232.143
  H       66.642      82.051    -228.836
  H       66.391      83.695    -229.378
  H       72.949      89.075    -233.802
  P       75.268      85.343    -234.774
  C       75.301      82.787    -234.568
  O       76.068      83.979    -234.525
  O       76.109      86.563    -234.931
  O       74.425      85.029    -236.107
  H       74.969      85.228    -236.889
  H       74.788      82.654    -233.606
  H       75.969      81.939    -234.737
  H       74.559      82.825    -235.368
  H       72.590      90.199    -237.373
  H       72.519      91.159    -235.915
  H       71.124      91.055    -236.961

 3  4  5  6  7  8  9  10  11  12  22  25  29  30  31  32 0
 6-311+G(2d,p)
 ****
 33  36  37 0
 6-311+G(2d,p)
 ****
 1  2  13  14  15  16  17  18  19  20  21  23  24  26 0
 3-21G
 ****
 27  28  34  35  38  39  40  41  42  43  44  45  46  47  48 0
 3-21G
 ****


