%nproc=1
%NoSave
%Mem=1900MB
#P OB98/GEN NMR

erre ene a

0 1
  C       22.291     102.421    -267.943
  O       22.587     101.236    -268.685
  P       23.132      99.975    -267.856
  C       20.842      98.851    -267.408
  O       21.977      99.495    -266.848
  C       19.661      98.847    -266.430
  O       19.946      98.006    -265.276
  C       19.307     100.236    -265.890
  O       17.889     100.278    -265.689
  C       19.991     100.262    -264.537
  O       19.434     101.261    -263.686
  C       19.774      98.816    -264.095
  N       20.219      96.316    -259.668
  C       19.160      96.549    -260.471
  N       19.120      97.248    -261.627
  C       20.347      97.689    -261.951
  C       21.518      97.539    -261.227
  C       21.425      96.815    -260.027
  N       22.497      96.599    -259.194
  N       22.565      98.177    -261.860
  C       22.032      98.707    -262.944
  N       20.703      98.413    -263.057
  O       24.231     100.621    -266.889
  O       23.720      98.900    -268.709
  H       19.892     101.215    -262.820
  H       25.125     100.369    -267.187
  H       18.216      96.123    -260.140
  H       22.557      99.312    -263.667
  H       18.763      98.646    -263.706
  H       21.059     100.475    -264.664
  H       19.615     101.069    -266.532
  H       18.791      98.420    -266.941
  H       21.090      97.819    -267.671
  H       22.341      96.094    -258.337
  H       23.391      97.005    -259.426
  H       20.578      99.345    -268.348
  P       17.027     101.016    -266.820
  C       15.474      99.010    -267.361
  O       16.506      99.869    -267.807
  O       18.127     101.793    -267.686
  O       15.980     101.938    -266.285
  H       17.725     102.567    -268.123
  H       14.781      98.833    -268.188
  H       14.917      99.435    -266.520
  H       15.911      98.058    -267.053
  H       21.939     103.181    -268.609
  H       23.176     102.763    -267.449
  H       21.536     102.207    -267.215

 3  4  5  6  7  8  9  10  11  12  22  25  29  30  31  32 0
 6-311+G(2d,p)
 ****
 33  36  37 0
 6-311+G(2d,p)
 ****
 1  2  13  14  15  16  17  18  19  20  21  23  24  26 0
 3-21G
 ****
 27  28  34  35  38  39  40  41  42  43  44  45  46  47  48 0
 3-21G
 ****


