%nproc=1
%NoSave
%Mem=1900MB
#P OB98/GEN NMR

erre ene a

0 1
  C     -212.036    -149.066      57.210
  O     -211.856    -148.871      58.617
  P     -213.146    -149.022      59.559
  C     -212.550    -151.341      60.562
  O     -212.767    -149.959      60.805
  C     -211.745    -151.992      61.696
  O     -210.356    -151.564      61.658
  C     -212.275    -151.649      63.094
  O     -211.995    -152.755      63.964
  C     -211.402    -150.478      63.499
  O     -211.420    -150.270      64.912
  C     -210.062    -150.919      62.915
  N     -206.018    -148.560      64.792
  C     -206.716    -149.652      65.272
  N     -206.240    -150.221      66.400
  N     -207.781    -150.145      64.693
  C     -208.116    -149.493      63.554
  C     -207.511    -148.398      62.981
  C     -206.349    -147.849      63.644
  O     -205.701    -146.876      63.272
  N     -208.161    -148.011      61.835
  C     -209.158    -148.868      61.723
  N     -209.151    -149.807      62.718
  O     -214.122    -149.944      58.684
  O     -213.796    -147.724      59.906
  H     -212.361    -150.180      65.182
  H     -214.864    -149.410      58.348
  H     -205.210    -148.215      65.282
  H     -209.907    -148.853      60.945
  H     -209.545    -151.644      63.558
  H     -211.760    -149.562      63.014
  H     -205.396    -149.923      66.867
  H     -213.342    -151.418      63.137
  H     -206.707    -151.047      66.752
  H     -211.756    -153.078      61.553
  H     -212.015    -151.477      59.616
  H     -213.518    -151.833      60.426
  P     -213.202    -153.759      64.273
  C     -212.491    -155.651      62.644
  O     -212.644    -155.232      63.987
  O     -214.223    -153.504      63.067
  O     -213.850    -153.565      65.607
  H     -215.130    -153.741      63.334
  H     -211.433    -155.614      62.377
  H     -213.064    -155.027      61.951
  H     -212.843    -156.683      62.558
  H     -211.099    -148.936      56.709
  H     -212.741    -148.352      56.838
  H     -212.402    -150.056      57.031

 3  4  5  6  7  8  9  10  11  12  23  26  30  31 0
 6-311+G(2d,p)
 ****
 33  35  36  37  38 0
 6-311+G(2d,p)
 ****
 1  2  13  14  15  16  17  18  19  20  21  22  24  25 0
 3-21G
 ****
 27  28  29  32  34  39  40  41  42  43  44  45  46  47  48  49 0
 3-21G
 ****


