%nproc=1
%NoSave
%Mem=1900MB
#P OB98/GEN NMR

erre ene a

0 1
  C      369.631    -534.487     -92.284
  O      369.439    -535.380     -93.372
  P      369.431    -536.953     -93.034
  C      368.074    -537.722     -95.138
  O      369.320    -537.714     -94.440
  C      368.308    -538.115     -96.594
  O      368.964    -537.041     -97.304
  C      369.188    -539.343     -96.780
  O      368.428    -540.528     -96.617
  C      369.705    -539.144     -98.204
  O      368.723    -539.562     -99.167
  C      369.907    -537.619     -98.257
  N      374.652    -537.311     -99.984
  C      373.553    -537.963    -100.510
  N      373.742    -538.596    -101.698
  N      372.383    -538.001     -99.933
  C      372.348    -537.351     -98.746
  C      373.372    -536.675     -98.121
  C      374.651    -536.604     -98.790
  O      375.620    -535.948     -98.411
  N      372.959    -536.154     -96.913
  C      371.689    -536.484     -96.844
  N      371.263    -537.190     -97.934
  O      368.001    -537.170     -92.355
  O      370.559    -537.419     -92.165
  H      368.549    -540.518     -99.065
  H      368.078    -537.182     -91.378
  H      375.527    -537.307    -100.485
  H      371.022    -536.217     -96.027
  H      369.664    -537.207     -99.244
  H      370.613    -539.720     -98.406
  H      374.624    -538.628    -102.186
  H      370.031    -539.328     -96.077
  H      372.947    -539.081    -102.100
  H      367.324    -538.267     -97.064
  H      367.636    -536.724     -95.100
  H      367.400    -538.432     -94.649
  P      369.045    -541.680     -95.680
  C      366.902    -543.041     -95.089
  O      368.107    -542.969     -95.840
  O      368.729    -541.164     -94.193
  O      370.507    -541.922     -95.876
  H      369.467    -541.405     -93.601
  H      366.176    -543.635     -95.652
  H      366.494    -542.047     -94.898
  H      367.114    -543.534     -94.136
  H      369.615    -533.479     -92.643
  H      370.575    -534.686     -91.821
  H      368.847    -534.623     -91.568

 3  4  5  6  7  8  9  10  11  12  23  26  30  31 0
 6-311+G(2d,p)
 ****
 33  35  36  37  38 0
 6-311+G(2d,p)
 ****
 1  2  13  14  15  16  17  18  19  20  21  22  24  25 0
 3-21G
 ****
 27  28  29  32  34  39  40  41  42  43  44  45  46  47  48  49 0
 3-21G
 ****


