%nproc=1
%NoSave
%Mem=1900MB
#P OB98/GEN NMR

erre ene a

0 1
  C      -23.578     -26.510      -7.258
  O      -22.598     -27.547      -7.390
  P      -21.922     -28.248      -6.115
  C      -20.426     -27.591      -4.124
  O      -21.030     -27.162      -5.341
  C      -19.368     -26.597      -3.635
  O      -18.196     -26.646      -4.472
  C      -19.822     -25.141      -3.631
  O      -20.635     -24.875      -2.504
  C      -18.481     -24.412      -3.644
  O      -17.926     -24.356      -2.319
  C      -17.634     -25.322      -4.542
  N      -14.904     -22.665      -7.953
  C      -14.679     -22.970      -6.657
  N      -15.458     -23.679      -5.812
  C      -16.563     -24.113      -6.440
  C      -16.930     -23.877      -7.756
  C      -16.043     -23.112      -8.531
  N      -16.282     -22.790      -9.847
  N      -18.147     -24.461      -8.036
  C      -18.501     -25.055      -6.913
  N      -17.577     -24.873      -5.920
  O      -21.204     -29.521      -6.424
  O      -23.137     -28.516      -5.106
  H      -17.807     -25.274      -2.015
  H      -22.935     -29.287      -4.546
  H      -13.748     -22.592      -6.241
  H      -19.408     -25.626      -6.771
  H      -16.603     -25.400      -4.181
  H      -18.563     -23.383      -4.008
  H      -20.366     -24.916      -4.554
  H      -19.061     -26.904      -2.628
  H      -19.960     -28.568      -4.295
  H      -15.612     -22.209     -10.325
  H      -17.150     -23.080     -10.272
  H      -21.210     -27.702      -3.367
  P      -22.117     -24.302      -2.701
  C      -23.196     -22.252      -3.802
  O      -21.992     -22.954      -3.561
  O      -22.936     -24.189      -1.459
  O      -22.782     -25.321      -3.744
  H      -23.743     -25.363      -3.585
  H      -23.736     -22.727      -4.625
  H      -22.952     -21.224      -4.083
  H      -23.827     -22.236      -2.909
  H      -23.891     -26.189      -8.230
  H      -23.153     -25.683      -6.729
  H      -24.422     -26.884      -6.717

 3  4  5  6  7  8  9  10  11  12  22  25  29  30  31  32 0
 6-311+G(2d,p)
 ****
 33  36  37 0
 6-311+G(2d,p)
 ****
 1  2  13  14  15  16  17  18  19  20  21  23  24  26 0
 3-21G
 ****
 27  28  34  35  38  39  40  41  42  43  44  45  46  47  48 0
 3-21G
 ****


