%nproc=1
%NoSave
%Mem=1900MB
#P OB98/GEN NMR

erre ene a

0 1
  C       12.149      34.173     -55.048
  O       13.048      33.125     -54.663
  P       12.736      31.567     -54.891
  C       12.587      31.024     -52.375
  O       11.922      30.997     -53.630
  C       11.857      30.179     -51.324
  O       10.586      30.806     -50.972
  C       11.549      28.738     -51.770
  O       11.744      27.904     -50.623
  C       10.078      28.833     -52.147
  O        9.422      27.580     -52.200
  C        9.585      29.768     -51.038
  N        8.259      30.341     -51.245
  C        7.153      29.590     -50.827
  O        7.284      28.462     -50.355
  N        5.899      30.134     -50.973
  C        5.756      31.312     -51.494
  N        4.489      31.793     -51.600
  C        6.889      32.127     -51.964
  C        8.096      31.587     -51.808
  O       13.946      30.758     -55.229
  O       11.674      31.516     -56.088
  H       11.847      30.727     -56.637
  H        9.281      27.276     -51.285
  H        6.726      33.108     -52.386
  H        8.985      32.137     -52.103
  H        9.609      29.238     -50.079
  H        9.999      29.294     -53.136
  H       12.194      28.382     -52.579
  H       12.466      30.173     -50.412
  H        3.735      31.208     -51.256
  H       12.629      32.060     -52.026
  H        4.263      32.700     -51.982
  H       13.614      30.665     -52.506
  P       12.817      26.714     -50.682
  C       11.115      24.793     -51.134
  O       12.207      25.556     -51.607
  O       12.675      26.070     -49.217
  O       14.235      27.112     -50.933
  H       13.509      25.626     -48.982
  H       10.384      24.692     -51.940
  H       10.626      25.258     -50.274
  H       11.471      23.800     -50.850
  H       12.576      35.121     -54.794
  H       11.219      34.052     -54.534
  H       11.981      34.129     -56.104

 3  4  5  6  7  8  9  10  11  12  13  24  27  28  29  30  32 0
 6-311+G(2d,p)
 ****
 34  35 0
 6-311+G(2d,p)
 ****
 1  2  14  15  16  17  18  19  20  21  22  23  25  26 0
 3-21G
 ****
 31  33  36  37  38  39  40  41  42  43  44  45  46 0
 3-21G
 ****


