%nproc=1
%NoSave
%Mem=1900MB
#P OB98/GEN NMR

erre ene a

0 1
  C     -293.335    1193.436    -126.538
  O     -293.177    1194.562    -127.398
  H     -294.402    1193.300    -126.351
  H     -292.823    1193.603    -125.601
  H     -292.952    1192.547    -127.027
  P     -291.666    1195.009    -127.711
  C     -291.577    1193.866    -130.063
  O     -291.624    1195.072    -129.322
  C     -292.089    1194.106    -131.481
  O     -293.497    1194.429    -131.474
  C     -291.420    1195.273    -132.206
  O     -290.126    1194.954    -132.703
  C     -292.419    1195.495    -133.324
  O     -292.271    1194.447    -134.316
  C     -293.754    1195.352    -132.574
  N     -294.249    1196.648    -132.041
  C     -295.405    1197.156    -132.658
  O     -295.956    1196.549    -133.570
  N     -295.885    1198.368    -132.226
  C     -295.291    1199.008    -131.272
  N     -295.817    1200.205    -130.897
  C     -294.077    1198.491    -130.593
  C     -293.622    1197.319    -131.021
  O     -290.812    1193.678    -127.397
  O     -291.184    1196.230    -127.017
  H     -292.995    1194.570    -134.968
  H     -289.881    1193.801    -127.705
  H     -293.611    1199.061    -129.802
  H     -292.743    1196.871    -130.575
  H     -294.527    1194.909    -133.208
  H     -292.288    1196.438    -133.855
  H     -291.390    1196.169    -131.587
  H     -291.980    1193.167    -132.044
  H     -296.603    1200.556    -131.414
  H     -292.224    1193.127    -129.552
  H     -295.345    1200.831    -130.264
  H     -290.564    1193.485    -130.107
  P     -289.095    1196.167    -132.886
  C     -287.109    1195.937    -131.187
  O     -287.642    1195.610    -132.493
  O     -289.453    1197.148    -131.676
  O     -289.163    1196.857    -134.218
  H     -289.322    1198.084    -131.941
  H     -286.140    1195.496    -131.077
  H     -287.762    1195.557    -130.430
  H     -287.031    1197.000    -131.090

 6  7  8  9  10  11  12  13  14  15  16  26  30  31  32  33  35 0
 6-311+G(2d,p)
 ****
 37  38 0
 6-311+G(2d,p)
 ****
 1  2  3  4  5  17  18  19  20  21  22  23  24  25 0
 3-21G
 ****
 27  28  29  34  36  39  40  41  42  43  44  45  46 0
 3-21G
 ****


