%nproc=1
%NoSave
%Mem=1900MB
#P OB98/GEN NMR

erre ene a

0 1
  C      445.306    -382.250    -240.797
  O      445.691    -383.220    -239.844
  H      444.217    -382.250    -240.870
  H      445.723    -382.488    -241.781
  H      445.632    -381.253    -240.481
  P      447.260    -383.500    -239.635
  C      449.006    -384.894    -240.950
  O      447.661    -384.444    -240.875
  C      449.050    -386.364    -241.364
  O      448.585    -387.222    -240.291
  C      448.162    -386.723    -242.552
  O      448.680    -386.274    -243.795
  C      448.160    -388.241    -242.435
  O      449.416    -388.763    -242.913
  C      448.032    -388.418    -240.899
  N      446.655    -388.630    -240.464
  C      446.333    -389.900    -239.974
  O      447.186    -390.790    -239.925
  N      445.043    -390.157    -239.589
  C      444.136    -389.230    -239.695
  N      442.862    -389.551    -239.343
  C      444.431    -387.870    -240.187
  C      445.694    -387.639    -240.555
  O      447.667    -384.004    -238.288
  O      447.968    -382.119    -240.042
  H      450.097    -388.476    -242.280
  H      448.942    -382.238    -239.912
  H      443.643    -387.134    -240.265
  H      445.986    -386.670    -240.941
  H      448.646    -389.262    -240.557
  H      447.366    -388.712    -243.013
  H      447.141    -386.358    -242.400
  H      450.104    -386.625    -241.549
  H      442.685    -390.501    -239.055
  H      449.471    -384.749    -239.964
  H      442.072    -388.990    -239.658
  H      449.565    -384.311    -241.691
  P      447.765    -385.307    -244.683
  C      446.778    -385.993    -247.001
  O      446.852    -386.261    -245.609
  O      448.804    -384.665    -245.714
  O      446.981    -384.268    -243.934
  H      449.137    -383.801    -245.386
  H      446.137    -386.711    -247.469
  H      447.757    -386.056    -247.429
  H      446.385    -385.010    -247.155

 6  7  8  9  10  11  12  13  14  15  16  26  30  31  32  33  35 0
 6-311+G(2d,p)
 ****
 37  38 0
 6-311+G(2d,p)
 ****
 1  2  3  4  5  17  18  19  20  21  22  23  24  25 0
 3-21G
 ****
 27  28  29  34  36  39  40  41  42  43  44  45  46 0
 3-21G
 ****


