%nproc=1
%NoSave
%Mem=1900MB
#P OB98/GEN NMR

erre ene a

0 1
  C      907.797      96.390    -172.774
  O      907.577      97.749    -172.399
  P      906.781      98.814    -173.282
  C      908.747     100.285    -174.242
  O      907.743      99.289    -174.463
  C      909.908     100.175    -175.220
  O      909.452     100.404    -176.572
  C      910.956     101.284    -174.935
  O      911.917     101.094    -173.914
  C      911.532     101.649    -176.297
  O      912.730     100.929    -176.581
  C      910.415     101.252    -177.278
  N      910.923     105.502    -180.042
  C      911.897     104.666    -179.561
  N      913.189     105.021    -179.798
  N      911.647     103.556    -178.890
  C      910.323     103.377    -178.633
  C      909.263     104.150    -179.043
  C      909.549     105.346    -179.852
  O      908.727     106.105    -180.319
  N      908.058     103.648    -178.584
  C      908.411     102.592    -177.888
  N      909.772     102.389    -177.880
  O      906.074      99.889    -172.511
  O      905.656      97.922    -174.028
  H      912.462      99.995    -176.821
  H      904.867      98.510    -174.139
  H      911.173     106.326    -180.572
  H      907.721     101.949    -177.358
  H      910.810     100.633    -178.088
  H      911.773     102.723    -176.351
  H      913.446     105.901    -180.228
  H      910.398     102.178    -174.608
  H      913.896     104.538    -179.275
  H      910.359      99.182    -175.211
  H      909.088     100.142    -173.209
  H      908.289     101.287    -174.295
  P      911.745     101.449    -172.357
  C      913.056     103.637    -172.712
  O      911.860     103.030    -172.183
  O      913.090     100.896    -171.686
  O      910.525     100.840    -171.707
  H      912.969     100.815    -170.711
  H      913.181     104.629    -172.273
  H      912.957     103.735    -173.781
  H      913.927     103.000    -172.465
  H      908.356      95.895    -172.008
  H      908.345      96.358    -173.692
  H      906.855      95.899    -172.903

 3  4  5  6  7  8  9  10  11  12  23  26  30  31 0
 6-311+G(2d,p)
 ****
 33  35  36  37  38 0
 6-311+G(2d,p)
 ****
 1  2  13  14  15  16  17  18  19  20  21  22  24  25 0
 3-21G
 ****
 27  28  29  32  34  39  40  41  42  43  44  45  46  47  48  49 0
 3-21G
 ****


