%nproc=1
%NoSave
%Mem=1900MB
#P OB98/GEN NMR

erre ene a

0 1
  C     -179.553     160.101    -191.533
  O     -180.797     159.467    -191.746
  H     -179.706     160.960    -190.874
  H     -179.152     160.459    -192.485
  H     -178.845     159.413    -191.063
  P     -180.787     158.122    -192.619
  C     -181.961     159.340    -194.587
  O     -180.836     158.584    -194.162
  C     -181.804     159.764    -196.049
  O     -181.564     158.574    -196.859
  C     -183.031     160.483    -196.633
  O     -182.563     161.477    -197.560
  C     -183.719     159.382    -197.429
  O     -184.585     159.899    -198.438
  C     -182.499     158.628    -197.958
  N     -182.391     155.622    -201.995
  C     -181.912     156.906    -201.820
  N     -181.313     157.479    -202.884
  N     -182.013     157.572    -200.697
  C     -182.609     156.860    -199.705
  C     -183.128     155.591    -199.751
  C     -183.034     154.875    -201.009
  O     -183.457     153.742    -201.228
  N     -183.677     155.235    -198.543
  C     -183.487     156.289    -197.771
  N     -182.840     157.301    -198.430
  O     -182.247     157.519    -192.360
  O     -179.709     157.145    -192.281
  H     -184.061     160.519    -198.990
  H     -182.223     156.882    -191.622
  H     -182.298     155.160    -202.884
  H     -183.796     156.375    -196.737
  H     -182.019     159.149    -198.797
  H     -184.314     158.749    -196.758
  H     -181.153     157.014    -203.763
  H     -183.680     160.947    -195.887
  H     -180.916     158.408    -202.762
  H     -180.904     160.386    -196.140
  H     -182.046     160.235    -193.963
  H     -182.869     158.733    -194.472
  P     -182.523     163.003    -197.070
  C     -184.940     163.262    -197.992
  O     -184.034     163.517    -196.928
  O     -182.000     163.777    -198.370
  O     -181.641     163.243    -195.889
  H     -181.531     164.590    -198.101
  H     -185.901     163.665    -197.747
  H     -185.024     162.206    -198.144
  H     -184.578     163.723    -198.887

 6  7  8  9  10  11  12  13  14  15  26  29  33  34 0
 6-311+G(2d,p)
 ****
 36  38  39  40  41 0
 6-311+G(2d,p)
 ****
 1  2  3  4  5  16  17  18  19  20  21  22  23  24  25 0
 3-21G
 ****
 27  28  30  31  32  35  37  42  43  44  45  46  47 0
 3-21G
 ****
 48  49 0
 3-21G
 ****


