%nproc=1
%NoSave
%Mem=1900MB
#P OB98/GEN NMR

erre ene a

0 1
  C       67.870    -149.336     357.570
  O       68.632    -148.162     357.381
  H       67.413    -149.300     358.564
  H       68.522    -150.213     357.518
  H       67.081    -149.411     356.820
  P       69.225    -147.918     355.907
  C       71.736    -148.343     355.395
  O       70.482    -148.908     355.752
  C       72.482    -147.875     356.644
  O       72.663    -148.981     357.566
  C       73.874    -147.313     356.372
  O       73.823    -145.950     355.962
  C       74.507    -147.450     357.748
  O       74.025    -146.402     358.611
  C       73.958    -148.810     358.208
  N       78.217    -151.310     359.381
  C       77.669    -150.170     359.948
  N       78.365    -149.613     360.963
  N       76.551    -149.627     359.549
  C       75.971    -150.283     358.516
  C       76.417    -151.418     357.874
  C       77.649    -152.018     358.329
  O       78.164    -153.041     357.877
  N       75.553    -151.800     356.876
  C       74.601    -150.886     356.897
  N       74.813    -149.939     357.875
  O       69.906    -146.470     356.018
  O       68.227    -147.964     354.799
  H       73.062    -146.517     358.686
  H       69.789    -146.002     355.167
  H       79.087    -151.683     359.720
  H       73.741    -150.867     356.241
  H       73.793    -148.844     359.295
  H       75.592    -147.374     357.725
  H       79.256    -149.956     361.290
  H       74.425    -147.934     355.652
  H       77.967    -148.797     361.414
  H       71.854    -147.129     357.152
  H       71.571    -147.487     354.727
  H       72.330    -149.100     354.863
  P       74.957    -145.436     354.945
  C       76.682    -144.044     356.300
  O       76.303    -145.328     355.820
  O       74.549    -143.910     354.694
  O       75.063    -146.212     353.675
  H       74.922    -143.604     353.846
  H       77.589    -144.126     356.861
  H       75.908    -143.656     356.929
  H       76.834    -143.384     355.472

 6  7  8  9  10  11  12  13  14  15  26  29  33  34 0
 6-311+G(2d,p)
 ****
 36  38  39  40  41 0
 6-311+G(2d,p)
 ****
 1  2  3  4  5  16  17  18  19  20  21  22  23  24  25 0
 3-21G
 ****
 27  28  30  31  32  35  37  42  43  44  45  46  47 0
 3-21G
 ****
 48  49 0
 3-21G
 ****


