%nproc=1
%NoSave
%Mem=1900MB
#P OB98/GEN NMR

erre ene a

0 1
  C     -217.496     350.801    -179.487
  O     -218.241     350.609    -180.675
  H     -216.629     351.426    -179.713
  H     -217.147     349.838    -179.110
  H     -218.104     351.302    -178.728
  P     -219.680     349.918    -180.537
  C     -218.619     347.607    -181.075
  O     -219.619     348.561    -181.395
  C     -217.928     347.125    -182.350
  O     -218.884     346.353    -183.132
  C     -217.412     348.258    -183.245
  O     -216.187     347.833    -183.853
  C     -218.484     348.367    -184.315
  O     -218.034     348.952    -185.528
  C     -218.891     346.896    -184.467
  N     -220.199     346.736    -185.094
  C     -220.352     347.225    -186.387
  O     -219.447     347.706    -187.067
  N     -221.621     347.146    -186.901
  C     -222.723     346.666    -186.259
  O     -223.837     346.641    -186.765
  C     -222.499     346.169    -184.891
  C     -221.267     346.230    -184.382
  O     -220.620     350.870    -181.415
  O     -220.180     349.749    -179.141
  H     -220.992     351.584    -180.864
  H     -218.798     348.981    -186.140
  H     -221.751     347.499    -187.837
  H     -223.351     345.789    -184.347
  H     -221.071     345.891    -183.368
  H     -218.134     346.351    -185.044
  H     -219.325     348.966    -183.941
  H     -217.256     349.207    -182.724
  H     -217.113     346.444    -182.075
  H     -219.079     346.750    -180.575
  H     -217.890     348.061    -180.394
  P     -214.830     348.095    -183.037
  C     -214.117     350.054    -184.625
  O     -213.823     348.775    -184.081
  O     -214.281     346.604    -182.863
  O     -215.051     348.843    -181.765
  H     -214.476     346.038    -183.629
  H     -213.337     350.343    -185.298
  H     -214.189     350.770    -183.833
  H     -215.046     350.012    -185.154

 6  7  8  9  10  11  12  13  14  15  16  27  31  32  33  34  35 0
 6-311+G(2d,p)
 ****
 36  37 0
 6-311+G(2d,p)
 ****
 1  2  3  4  5  17  18  19  20  21  22  23  24  25 0
 3-21G
 ****
 26  28  29  30  38  39  40  41  42  43  44  45 0
 3-21G
 ****


