%nproc=1
%NoSave
%Mem=1900MB
#P OB98/GEN NMR

erre ene a

0 1
  C      256.218     140.876      44.393
  O      255.097     140.121      43.984
  H      255.898     141.736      44.985
  H      256.863     140.244      45.011
  H      256.786     141.214      43.522
  P      254.000     140.881      43.093
  C      252.391     141.393      45.061
  O      253.251     141.924      44.061
  C      251.893     142.517      45.968
  O      252.989     142.936      46.819
  C      251.365     143.754      45.224
  O      250.010     144.016      45.600
  C      252.234     144.898      45.727
  O      251.502     146.100      45.958
  C      252.832     144.346      47.016
  N      255.622     146.464      50.716
  C      254.581     145.603      50.764
  N      253.950     144.993      49.741
  C      254.515     145.328      48.568
  C      255.593     146.172      48.363
  C      256.145     146.771      49.507
  N      257.170     147.690      49.455
  N      255.882     146.279      47.015
  C      254.966     145.548      46.415
  N      254.107     144.969      47.311
  O      252.894     139.752      42.831
  O      254.511     141.460      41.817
  H      252.128     146.739      46.347
  H      252.662     139.735      41.884
  H      254.199     145.381      51.756
  H      254.851     145.438      45.344
  H      252.169     144.497      47.876
  H      253.013     145.105      44.984
  H      251.436     143.656      44.135
  H      251.114     142.108      46.625
  H      252.941     140.664      45.667
  H      257.425     148.155      50.311
  H      257.490     148.005      48.551
  H      251.554     140.883      44.577
  P      248.870     143.508      44.584
  C      248.013     145.913      44.077
  O      248.567     144.709      43.565
  O      247.561     143.470      45.507
  O      249.159     142.182      43.964
  H      246.930     142.810      45.163
  H      247.872     146.609      43.277
  H      248.680     146.333      44.801
  H      247.071     145.704      44.539

 6  7  8  9  10  11  12  13  14  15  25  28  32  33  34  35 0
 6-311+G(2d,p)
 ****
 36  39  40 0
 6-311+G(2d,p)
 ****
 1  2  3  4  5  16  17  18  19  20  21  22  23  24 0
 3-21G
 ****
 26  27  29  30  31  37  38  41  42  43  44  45  46  47  48 0
 3-21G
 ****


