%nproc=1
%NoSave
%Mem=1900MB
#P OB98/GEN NMR

erre ene a

0 1
  C       59.633     -70.962    -320.697
  O       58.222     -70.930    -320.772
  H       60.054     -70.269    -321.429
  H       59.939     -70.645    -319.697
  H       60.009     -71.972    -320.879
  P       57.538     -71.637    -322.039
  C       56.263     -73.369    -320.583
  O       57.232     -73.153    -321.600
  C       56.588     -74.637    -319.797
  O       57.913     -74.489    -319.208
  C       55.603     -74.947    -318.660
  O       55.401     -76.362    -318.607
  C       56.354     -74.508    -317.417
  O       55.923     -75.188    -316.243
  C       57.793     -74.820    -317.813
  N       59.900     -74.500    -313.197
  C       59.226     -75.494    -313.813
  N       58.743     -75.516    -315.072
  C       59.078     -74.392    -315.730
  C       59.766     -73.297    -315.238
  C       60.173     -73.371    -313.895
  N       60.798     -72.338    -313.236
  N       59.862     -72.315    -316.204
  C       59.219     -72.798    -317.250
  N       58.726     -74.051    -317.010
  O       58.767     -71.781    -323.056
  O       56.392     -70.901    -322.647
  H       56.406     -74.828    -315.473
  H       58.844     -70.971    -323.593
  H       59.041     -76.381    -313.216
  H       59.056     -72.279    -318.183
  H       58.046     -75.882    -317.687
  H       56.213     -73.431    -317.263
  H       54.635     -74.440    -318.763
  H       56.644     -75.477    -320.499
  H       55.279     -73.483    -321.048
  H       60.956     -72.441    -312.244
  H       60.910     -71.453    -313.708
  H       56.241     -72.502    -319.916
  P       54.295     -76.986    -319.585
  C       55.905     -78.507    -320.957
  O       55.004     -77.402    -320.959
  O       53.408     -75.719    -319.995
  O       53.464     -78.056    -318.953
  H       52.481     -75.983    -320.132
  H       56.291     -78.654    -321.944
  H       55.387     -79.389    -320.641
  H       56.713     -78.307    -320.284

 6  7  8  9  10  11  12  13  14  15  25  28  32  33  34  35 0
 6-311+G(2d,p)
 ****
 36  39  40 0
 6-311+G(2d,p)
 ****
 1  2  3  4  5  16  17  18  19  20  21  22  23  24 0
 3-21G
 ****
 26  27  29  30  31  37  38  41  42  43  44  45  46  47 0
 3-21G
 ****
 48 0
 3-21G
 ****


