%nproc=1
%NoSave
%Mem=1900MB
#P OB98/GEN NMR

erre ene a

0 1
  C      419.145      94.597     405.256
  O      420.251      93.832     404.816
  P      421.418      93.543     405.880
  C      422.795      95.694     405.367
  O      422.020      94.960     406.312
  C      423.981      96.361     406.064
  O      423.518      97.407     406.942
  C      424.806      95.427     406.937
  O      425.637      94.589     406.157
  C      425.548      96.440     407.802
  O      426.654      96.993     407.068
  C      424.473      97.518     408.032
  N      425.051      96.953     413.091
  C      425.948      97.044     412.083
  N      425.717      97.172     410.762
  C      424.395      97.210     410.511
  C      423.366      97.105     411.428
  C      423.729      96.976     412.774
  N      422.810      96.876     413.794
  N      422.142      97.161     410.798
  C      422.429      97.310     409.520
  N      423.781      97.359     409.298
  O      422.582      92.907     404.982
  O      421.026      92.644     407.010
  H      426.286      97.418     406.265
  H      423.078      92.231     405.483
  H      426.999      97.012     412.383
  H      421.702      97.391     408.723
  H      424.882      98.533     408.008
  H      425.950      96.008     408.723
  H      424.150      94.811     407.566
  H      424.612      96.816     405.291
  H      422.177      96.473     404.909
  H      423.152      96.638     414.713
  H      421.834      96.750     413.547
  H      423.134      95.015     404.582
  P      425.893      93.096     406.690
  C      428.097      93.771     407.810
  O      426.775      93.304     408.011
  O      426.957      92.549     405.632
  O      424.655      92.272     406.851
  H      427.693      93.176     405.499
  H      428.567      93.917     408.785
  H      428.084      94.730     407.274
  H      428.677      93.037     407.247
  H      418.448      94.712     404.452
  H      419.483      95.561     405.576
  H      418.668      94.097     406.073

 3  4  5  6  7  8  9  10  11  12  22  25  29  30  31  32 0
 6-311+G(2d,p)
 ****
 33  36  37 0
 6-311+G(2d,p)
 ****
 1  2  13  14  15  16  17  18  19  20  21  23  24  26 0
 3-21G
 ****
 27  28  34  35  38  39  40  41  42  43  44  45  46  47  48 0
 3-21G
 ****


