%nproc=1
%NoSave
%Mem=1900MB
#P OB98/GEN NMR

erre ene a

0 1
  C     -273.104      24.704    -398.676
  O     -272.825      23.504    -397.982
  H     -272.992      24.517    -399.747
  H     -272.408      25.490    -398.379
  H     -274.134      25.021    -398.483
  P     -272.811      23.537    -396.377
  C     -274.737      21.826    -396.151
  O     -273.371      22.120    -395.882
  C     -275.171      20.540    -395.430
  O     -274.736      19.392    -396.222
  C     -274.568      20.382    -394.021
  O     -275.504      19.633    -393.239
  C     -273.331      19.552    -394.323
  O     -272.787      19.004    -393.146
  C     -273.890      18.584    -395.367
  N     -272.846      17.909    -396.119
  C     -272.858      16.508    -396.074
  O     -273.698      15.920    -395.403
  N     -271.880      15.820    -396.749
  C     -270.939      16.472    -397.365
  N     -270.000      15.724    -398.009
  C     -270.865      17.947    -397.395
  C     -271.841      18.594    -396.760
  O     -273.459      24.723    -395.745
  O     -271.255      23.458    -396.006
  H     -272.353      19.701    -392.602
  H     -270.938      24.331    -395.718
  H     -270.054      18.434    -397.910
  H     -271.868      19.682    -396.727
  H     -274.529      17.823    -394.897
  H     -272.546      20.180    -394.766
  H     -274.348      21.341    -393.542
  H     -276.267      20.502    -395.396
  H     -270.087      14.719    -397.954
  H     -274.842      21.703    -397.232
  H     -269.219      16.121    -398.504
  H     -275.373      22.660    -395.826
  P     -276.639      20.322    -392.344
  C     -278.416      18.667    -393.215
  O     -277.821      19.268    -392.076
  O     -277.112      21.636    -392.867
  O     -275.966      20.499    -390.894
  H     -276.345      21.293    -390.469
  H     -279.183      17.990    -392.901
  H     -277.671      18.131    -393.766
  H     -278.842      19.426    -393.837

 6  7  8  9  10  11  12  13  14  15  16  26  30  31  32  33  35 0
 6-311+G(2d,p)
 ****
 37  38 0
 6-311+G(2d,p)
 ****
 1  2  3  4  5  17  18  19  20  21  22  23  24  25 0
 3-21G
 ****
 27  28  29  34  36  39  40  41  42  43  44  45  46 0
 3-21G
 ****


