%nproc=1
%NoSave
%Mem=1900MB
#P OB98/GEN NMR

erre ene a

0 1
  C     -109.039     688.666    -527.442
  O     -108.073     687.778    -528.000
  P     -108.589     686.459    -528.746
  C     -107.347     686.869    -531.058
  O     -107.578     686.065    -529.926
  C     -105.877     686.695    -531.509
  O     -104.992     687.360    -530.579
  C     -105.452     685.226    -531.589
  O     -105.774     684.646    -532.838
  C     -103.955     685.337    -531.333
  O     -103.273     685.796    -532.525
  C     -103.906     686.453    -530.242
  N     -104.066     686.022    -528.826
  C     -102.946     685.765    -528.040
  O     -101.790     685.863    -528.458
  N     -103.198     685.422    -526.746
  C     -104.384     685.445    -526.098
  O     -104.542     685.162    -524.913
  C     -105.523     685.868    -526.928
  C     -105.338     686.122    -528.227
  O     -109.900     686.960    -529.537
  O     -108.896     685.295    -527.833
  H     -103.393     685.114    -533.205
  H     -110.711     686.514    -529.178
  H     -102.391     685.158    -526.191
  H     -106.499     685.950    -526.455
  H     -106.171     686.439    -528.855
  H     -102.970     687.006    -530.288
  H     -103.521     684.383    -531.083
  H     -105.889     684.660    -530.767
  H     -105.767     687.177    -532.498
  H     -107.556     687.932    -530.835
  H     -108.030     686.579    -531.853
  P     -105.772     683.064    -533.022
  C     -108.296     682.965    -533.564
  O     -106.971     682.719    -534.039
  O     -105.772     682.260    -531.730
  O     -104.456     682.758    -533.907
  H     -103.695     682.531    -533.322
  H     -108.978     682.855    -534.397
  H     -108.384     683.984    -533.157
  H     -108.541     682.253    -532.790
  H     -108.540     689.493    -526.982
  H     -109.619     688.146    -526.708
  H     -109.683     689.025    -528.217

 3  4  5  6  7  8  9  10  11  12  13  23  28  29  30  31  32 0
 6-311+G(2d,p)
 ****
 33  34 0
 6-311+G(2d,p)
 ****
 1  2  14  15  16  17  18  19  20  21  22  24  25  26  27 0
 3-21G
 ****
 35  36  37  38  39  40  41  42  43  44  45 0
 3-21G
 ****


