%nproc=1
%NoSave
%Mem=1900MB
#P OB98/GEN NMR

erre ene a

0 1
  C     -402.907    -133.481    -104.097
  O     -402.169    -132.993    -105.198
  H     -403.975    -133.409    -104.330
  H     -402.700    -132.868    -103.214
  H     -402.663    -134.524    -103.886
  P     -400.594    -133.276    -105.263
  C     -398.742    -132.524    -106.894
  O     -399.956    -132.181    -106.243
  C     -398.193    -131.337    -107.700
  O     -399.017    -131.151    -108.880
  C     -398.268    -130.031    -106.898
  O     -397.264    -129.099    -107.285
  C     -399.637    -129.478    -107.280
  O     -399.743    -128.071    -107.089
  C     -399.737    -129.918    -108.742
  N     -404.098    -127.625    -110.073
  C     -402.977    -127.084    -109.470
  N     -403.022    -125.762    -109.188
  N     -401.918    -127.783    -109.155
  C     -402.041    -129.104    -109.427
  C     -403.107    -129.762    -109.995
  C     -404.263    -128.974    -110.378
  O     -405.287    -129.404    -110.890
  N     -402.863    -131.111    -110.109
  C     -401.666    -131.274    -109.606
  N     -401.106    -130.085    -109.194
  O     -400.490    -134.622    -106.130
  O     -399.909    -133.421    -103.937
  H     -399.314    -127.637    -107.849
  H     -399.647    -135.078    -105.945
  H     -404.879    -127.037    -110.323
  H     -401.145    -132.218    -109.519
  H     -399.255    -129.170    -109.398
  H     -400.391    -129.952    -106.641
  H     -403.888    -125.238    -109.237
  H     -398.208    -130.193    -105.819
  H     -402.359    -125.422    -108.484
  H     -397.176    -131.554    -108.050
  H     -398.958    -133.373    -107.555
  H     -398.004    -132.868    -106.169
  P     -395.783    -129.272    -106.699
  C     -393.408    -128.354    -107.423
  O     -394.805    -128.189    -107.353
  O     -395.289    -130.662    -107.316
  O     -395.712    -129.267    -105.197
  H     -395.143    -131.316    -106.608
  H     -392.972    -127.502    -107.901
  H     -393.181    -129.235    -107.987
  H     -393.010    -128.451    -106.434

 6  7  8  9  10  11  12  13  14  15  26  29  33  34 0
 6-311+G(2d,p)
 ****
 36  38  39  40  41 0
 6-311+G(2d,p)
 ****
 1  2  3  4  5  16  17  18  19  20  21  22  23  24  25 0
 3-21G
 ****
 27  28  30  31  32  35  37  42  43  44  45  46  47 0
 3-21G
 ****
 48  49 0
 3-21G
 ****


