%nproc=1
%NoSave
%Mem=1900MB
#P OB98/GEN NMR

erre ene a

0 1
  C      266.327    -233.026    -104.350
  O      265.019    -233.036    -104.937
  P      264.671    -233.842    -106.279
  C      263.998    -236.232    -105.575
  O      263.544    -234.937    -105.964
  C      263.056    -237.332    -106.072
  O      263.601    -238.636    -105.788
  C      261.672    -237.325    -105.435
  O      260.865    -236.292    -105.972
  C      261.196    -238.740    -105.752
  O      260.670    -238.820    -107.088
  C      262.502    -239.552    -105.629
  N      262.589    -240.281    -104.372
  C      261.919    -241.506    -104.310
  O      261.248    -241.897    -105.265
  N      262.008    -242.248    -103.154
  C      262.644    -241.770    -102.131
  N      262.703    -242.553    -101.018
  C      263.285    -240.444    -102.123
  C      263.221    -239.762    -103.265
  O      265.871    -234.389    -106.985
  O      263.911    -232.786    -107.214
  H      260.020    -238.095    -107.173
  H      264.096    -232.995    -108.148
  H      263.781    -240.071    -101.238
  H      263.675    -238.781    -103.349
  H      262.586    -240.269    -106.455
  H      260.407    -239.080    -105.076
  H      261.766    -237.210    -104.348
  H      262.975    -237.234    -107.164
  H      262.257    -243.458    -101.059
  H      264.045    -236.263    -104.480
  H      263.173    -242.278    -100.168
  H      265.006    -236.386    -105.974
  P      259.836    -235.513    -105.026
  C      261.282    -234.415    -103.213
  O      260.593    -234.231    -104.436
  O      259.124    -236.351    -104.017
  O      258.797    -234.858    -106.058
  H      257.920    -234.805    -105.633
  H      262.056    -233.646    -103.124
  H      261.753    -235.403    -103.166
  H      260.579    -234.307    -102.381
  H      266.316    -232.424    -103.466
  H      267.029    -232.621    -105.049
  H      266.612    -234.026    -104.097

 3  4  5  6  7  8  9  10  11  12  13  23  27  28  29  30  32 0
 6-311+G(2d,p)
 ****
 34  35 0
 6-311+G(2d,p)
 ****
 1  2  14  15  16  17  18  19  20  21  22  24  25  26 0
 3-21G
 ****
 31  33  36  37  38  39  40  41  42  43  44  45  46 0
 3-21G
 ****


