%nproc=1
%NoSave
%Mem=1900MB
#P OB98/GEN NMR

erre ene a

0 1
  C      117.104     224.848    -224.913
  O      116.755     223.619    -224.296
  P      115.719     222.661    -225.052
  C      113.833     223.166    -223.335
  O      114.623     222.176    -223.982
  C      113.284     222.640    -222.007
  O      112.320     221.584    -222.260
  C      114.363     222.059    -221.081
  O      114.006     222.317    -219.715
  C      114.251     220.565    -221.303
  O      114.762     219.830    -220.193
  C      112.742     220.421    -221.520
  N      111.340     215.589    -221.006
  C      111.341     216.606    -220.071
  N      111.002     216.261    -218.808
  N      111.637     217.846    -220.351
  C      111.966     218.041    -221.653
  C      111.987     217.116    -222.675
  C      111.667     215.744    -222.347
  O      111.674     214.790    -223.123
  N      112.330     217.694    -223.871
  C      112.560     218.960    -223.571
  N      112.388     219.209    -222.231
  O      116.584     221.340    -225.323
  O      115.171     223.212    -226.326
  H      115.685     220.118    -220.062
  H      116.835     221.298    -226.268
  H      111.115     214.643    -220.742
  H      112.877     219.721    -224.273
  H      112.199     220.419    -220.566
  H      114.813     220.276    -222.201
  H      110.830     215.312    -218.514
  H      115.375     222.435    -221.271
  H      111.038     216.978    -218.096
  H      112.744     223.453    -221.505
  H      112.999     223.437    -223.985
  H      114.438     224.062    -223.166
  P      115.225     222.638    -218.720
  C      113.861     222.512    -216.503
  O      114.570     223.321    -217.426
  O      115.985     223.849    -219.444
  O      116.127     221.480    -218.460
  H      116.920     223.871    -219.178
  H      114.373     222.542    -215.540
  H      113.782     221.472    -216.836
  H      112.848     222.913    -216.382
  H      117.799     225.374    -224.293
  H      116.224     225.443    -225.046
  H      117.551     224.655    -225.866

 3  4  5  6  7  8  9  10  11  12  23  26  30  31 0
 6-311+G(2d,p)
 ****
 33  35  36  37  38 0
 6-311+G(2d,p)
 ****
 1  2  13  14  15  16  17  18  19  20  21  22  24  25 0
 3-21G
 ****
 27  28  29  32  34  39  40  41  42  43  44  45  46  47  48  49 0
 3-21G
 ****


