%nproc=1
%NoSave
%Mem=1900MB
#P OB98/GEN NMR

erre ene a

0 1
  C     -172.121    -325.695    -258.810
  O     -170.721    -325.471    -258.796
  P     -170.132    -324.514    -257.643
  C     -169.245    -326.397    -256.083
  O     -170.187    -325.347    -256.271
  C     -168.541    -326.266    -254.732
  O     -169.549    -326.194    -253.682
  C     -167.601    -327.431    -254.389
  O     -166.504    -326.877    -253.650
  C     -168.480    -328.297    -253.500
  O     -167.764    -329.245    -252.726
  C     -169.220    -327.217    -252.715
  N     -171.900    -327.281    -248.357
  C     -170.768    -326.629    -248.710
  N     -170.117    -326.656    -249.892
  C     -170.756    -327.450    -250.768
  C     -171.903    -328.191    -250.550
  C     -172.488    -328.088    -249.274
  N     -173.639    -328.762    -248.915
  N     -172.249    -328.908    -251.676
  C     -171.321    -328.607    -252.562
  N     -170.412    -327.716    -252.066
  O     -171.287    -323.423    -257.458
  O     -168.809    -323.886    -257.959
  H     -168.353    -329.638    -252.051
  H     -170.911    -322.536    -257.304
  H     -170.328    -326.004    -247.941
  H     -171.257    -329.015    -253.564
  H     -168.584    -326.761    -251.946
  H     -169.173    -328.862    -254.132
  H     -167.209    -327.950    -255.271
  H     -167.990    -325.316    -254.719
  H     -168.487    -326.348    -256.873
  H     -173.860    -328.778    -247.931
  H     -173.945    -329.509    -249.529
  H     -169.757    -327.362    -256.171
  P     -165.197    -327.772    -253.409
  C     -164.231    -326.718    -255.545
  O     -164.554    -327.921    -254.876
  O     -165.854    -329.217    -253.196
  O     -164.296    -327.331    -252.308
  H     -166.483    -329.434    -253.910
  H     -163.715    -326.967    -256.479
  H     -163.571    -326.105    -254.928
  H     -165.144    -326.167    -255.782
  H     -172.370    -326.344    -259.623
  H     -172.630    -324.762    -258.930
  H     -172.419    -326.148    -257.887

 3  4  5  6  7  8  9  10  11  12  22  25  29  30  31  32 0
 6-311+G(2d,p)
 ****
 33  36  37 0
 6-311+G(2d,p)
 ****
 1  2  13  14  15  16  17  18  19  20  21  23  24  26 0
 3-21G
 ****
 27  28  34  35  38  39  40  41  42  43  44  45  46  47  48 0
 3-21G
 ****


