%nproc=1
%NoSave
%Mem=1900MB
#P OB98/GEN NMR

erre ene a

0 1
  C       14.684    -899.462     441.744
  O       14.674    -898.132     441.239
  P       15.871    -897.152     441.728
  C       17.161    -896.942     439.492
  O       16.352    -896.302     440.466
  C       16.617    -896.652     438.074
  O       15.416    -897.422     437.800
  C       16.217    -895.212     437.860
  O       17.325    -894.382     437.593
  C       15.334    -895.332     436.612
  O       16.174    -895.352     435.431
  C       14.642    -896.682     436.818
  N       10.135    -894.442     436.170
  C       11.315    -894.302     435.449
  N       11.266    -893.482     434.367
  N       12.425    -894.932     435.749
  C       12.317    -895.752     436.811
  C       11.211    -895.962     437.623
  C       10.000    -895.232     437.319
  O        8.935    -895.302     437.939
  N       11.470    -896.872     438.614
  C       12.728    -897.232     438.405
  N       13.282    -896.572     437.326
  O       17.081    -898.182     441.983
  O       15.526    -896.372     442.960
  H       16.804    -896.092     435.548
  H       17.689    -897.812     442.662
  H        9.315    -893.942     435.901
  H       13.272    -897.962     438.975
  H       14.628    -897.292     435.911
  H       14.649    -894.472     436.487
  H       10.407    -893.022     434.051
  H       15.623    -894.832     438.693
  H       12.108    -893.412     433.805
  H       17.392    -896.962     437.353
  H       17.131    -898.032     439.645
  H       18.186    -896.622     439.589
  P       17.358    -892.922     438.292
  C       19.508    -893.632     439.566
  O       18.900    -892.682     438.729
  O       16.590    -893.172     439.680
  O       16.725    -891.862     437.474
  H       16.147    -892.332     439.957
  H       19.255    -894.642     439.258
  H       19.167    -893.472     440.604
  H       20.588    -893.482     439.519
  H       13.848    -900.000     441.348
  H       14.620    -899.438     442.812
  H       15.592    -899.947     441.452

 3  4  5  6  7  8  9  10  11  12  23  26  30  31  33  0
 6-311+G(2d,p)
 ****
 35  36  37  38 0
 6-311+G(2d,p)
 ****
 1  2  13  14  15  16  17  18  19  20  21  22  24  25  27  28  29 0
 3-21G
 ****
 32  34  39  40  41  42  43  44  45  46  47  48  49 0
 3-21G
 ****


