%nproc=1
%NoSave
%Mem=1900MB
#P OB98/GEN NMR

erre ene a

0 1
  C       -6.106    -197.904    -173.727
  O       -5.919    -199.011    -172.848
  P       -5.102    -198.756    -171.492
  C       -2.684    -199.272    -172.364
  O       -3.611    -198.316    -171.890
  C       -1.266    -198.977    -171.834
  O       -0.404    -200.096    -172.185
  C       -0.592    -197.742    -172.430
  O        0.489    -197.350    -171.574
  C       -0.033    -198.289    -173.729
  O        0.982    -197.445    -174.263
  C        0.421    -199.711    -173.318
  N        0.287    -200.710    -174.401
  C        1.023    -200.516    -175.574
  O        1.778    -199.569    -175.763
  N        0.839    -201.452    -176.560
  C        0.045    -202.553    -176.476
  O       -0.156    -203.308    -177.424
  C       -0.599    -202.782    -175.177
  C       -0.458    -201.865    -174.218
  O       -4.930    -200.219    -170.874
  O       -5.787    -197.822    -170.544
  H        1.317    -197.890    -175.078
  H       -5.533    -200.341    -170.115
  H        1.311    -201.290    -177.436
  H       -1.184    -203.685    -175.054
  H       -0.942    -202.002    -173.255
  H        1.474    -199.713    -173.000
  H       -0.827    -198.353    -174.475
  H       -1.261    -196.894    -172.599
  H       -1.297    -198.910    -170.743
  H       -2.686    -199.284    -173.459
  H       -2.989    -200.274    -172.039
  P        0.478    -195.854    -170.988
  C        2.196    -194.853    -172.619
  O        0.836    -194.887    -172.218
  O        1.267    -195.638    -169.741
  O       -1.086    -195.568    -170.766
  H       -1.199    -194.827    -170.148
  H        2.237    -194.623    -173.693
  H        2.690    -195.814    -172.448
  H        2.717    -194.066    -172.071
  H       -6.664    -198.219    -174.584
  H       -5.153    -197.531    -174.039
  H       -6.642    -197.131    -173.217

 3  4  5  6  7  8  9  10  11  12  13  23  28  29  30  31  32 0
 6-311+G(2d,p)
 ****
 33  34 0
 6-311+G(2d,p)
 ****
 1  2  14  15  16  17  18  19  20  21  22  24  25  26  27 0
 3-21G
 ****
 35  36  37  38  39  40  41  42  43  44  45 0
 3-21G
 ****


