%nproc=1
%NoSave
%Mem=1900MB
#P OB98/GEN NMR

erre ene a

0 1
  C      431.530      17.821     104.341
  O      432.747      17.258     103.877
  H      431.209      18.583     103.624
  H      431.682      18.295     105.313
  H      430.760      17.054     104.411
  P      433.384      16.098     104.785
  C      435.008      15.814     102.773
  O      434.846      15.811     104.185
  C      436.483      15.643     102.423
  O      437.003      14.454     103.064
  C      436.748      15.448     100.936
  O      436.707      16.670     100.222
  C      438.134      14.813     100.968
  O      439.166      15.800     101.084
  C      438.074      13.950     102.234
  N      440.366       9.464     101.370
  C      440.854      10.676     101.728
  N      440.173      11.822     101.958
  C      438.848      11.624     101.795
  C      438.210      10.451     101.429
  C      439.025       9.328     101.209
  N      438.537       8.107     100.817
  N      436.847      10.649     101.326
  C      436.670      11.918     101.635
  N      437.845      12.544     101.927
  O      432.534      14.803     104.360
  O      433.332      16.334     106.255
  H      439.209      16.249     100.214
  H      431.849      14.630     105.029
  H      441.931      10.734     101.860
  H      435.707      12.435     101.643
  H      439.001      14.007     102.823
  H      438.309      14.246     100.052
  H      436.034      14.733     100.515
  H      437.040      16.509     102.810
  H      434.652      16.773     102.367
  H      434.412      15.002     102.344
  H      439.191       7.365     100.609
  H      437.561       8.019     100.585
  P      436.066      16.650      98.755
  C      434.879      18.890      99.373
  O      435.612      18.153      98.408
  O      434.667      15.875      98.954
  O      436.911      16.003      97.707
  H      434.483      15.329      98.168
  H      434.658      19.863      98.986
  H      435.460      18.985     100.266
  H      433.966      18.378      99.594

 6  7  8  9  10  11  12  13  14  15  25  28  32  33  34  35 0
 6-311+G(2d,p)
 ****
 36  37  40 0
 6-311+G(2d,p)
 ****
 1  2  3  4  5  16  17  18  19  20  21  22  23  24 0
 3-21G
 ****
 26  27  29  30  31  38  39 41  42  43  44  45  46  47  48 0
 3-21G
 ****


