%nproc=1
%NoSave
%Mem=1900MB
#P OB98/GEN NMR

erre ene a

0 1
  C     -131.318     405.773    -350.727
  O     -129.987     405.608    -351.218
  P     -128.803     405.336    -350.167
  C     -127.343     403.937    -351.758
  O     -127.432     405.123    -350.980
  C     -127.912     404.120    -353.172
  O     -127.367     405.308    -353.801
  C     -127.643     402.940    -354.123
  O     -128.788     402.811    -354.965
  C     -126.439     403.425    -354.908
  O     -126.254     402.699    -356.114
  C     -126.796     404.908    -355.066
  N     -125.648     405.723    -355.422
  C     -125.201     405.652    -356.743
  O     -125.712     404.848    -357.524
  N     -124.171     406.475    -357.134
  C     -123.548     407.184    -356.245
  N     -122.548     408.001    -356.674
  C     -123.876     407.148    -354.809
  C     -124.941     406.422    -354.475
  O     -129.087     404.295    -349.135
  O     -128.590     406.773    -349.490
  H     -127.047     402.808    -356.677
  H     -128.345     406.650    -348.552
  H     -123.273     407.688    -354.091
  H     -125.266     406.332    -353.449
  H     -127.573     405.043    -355.830
  H     -125.537     403.311    -354.301
  H     -127.474     401.992    -353.597
  H     -128.997     404.271    -353.082
  H     -122.319     407.999    -357.661
  H     -127.892     403.136    -351.254
  H     -122.047     408.624    -356.053
  H     -126.297     403.613    -351.795
  P     -129.846     401.635    -354.676
  C     -131.883     402.978    -355.559
  O     -131.086     401.826    -355.670
  O     -130.472     402.106    -353.269
  O     -129.275     400.259    -354.544
  H     -130.815     401.323    -352.802
  H     -132.484     403.082    -356.467
  H     -131.272     403.881    -355.446
  H     -132.559     402.881    -354.703
  H     -131.982     405.945    -351.548
  H     -131.351     406.609    -350.060
  H     -131.618     404.888    -350.205

 3  4  5  6  7  8  9  10  11  12  13  23  27  28  29  30  32 0
 6-311+G(2d,p)
 ****
 34  35 0
 6-311+G(2d,p)
 ****
 1  2  14  15  16  17  18  19  20  21  22  24  25  26 0
 3-21G
 ****
 31  33  36  37  38  39  40  41  42  43  44  45  46 0
 3-21G
 ****


