%nproc=1
%NoSave
%Mem=1900MB
#P OB98/GEN NMR

erre ene a

0 1
  C     -145.746    -566.275     125.156
  O     -144.743    -567.014     124.484
  H     -145.508    -565.212     125.077
  H     -145.774    -566.558     126.212
  H     -146.720    -566.456     124.694
  P     -144.921    -568.607     124.469
  C     -142.679    -569.883     124.859
  O     -143.526    -569.203     123.945
  C     -141.362    -570.272     124.176
  O     -141.664    -571.123     123.031
  C     -140.555    -569.076     123.645
  O     -139.163    -569.432     123.665
  C     -141.040    -568.998     122.205
  O     -140.197    -568.172     121.432
  C     -141.079    -570.486     121.869
  N     -140.828    -571.651     116.899
  C     -139.869    -571.464     117.828
  N     -140.011    -571.169     119.134
  C     -141.314    -571.089     119.465
  C     -142.403    -571.265     118.630
  C     -142.124    -571.552     117.282
  N     -143.100    -571.735     116.332
  N     -143.585    -571.097     119.331
  C     -143.210    -570.831     120.567
  N     -141.848    -570.808     120.692
  O     -145.924    -568.855     123.251
  O     -145.421    -569.208     125.742
  H     -140.456    -568.198     120.486
  H     -146.841    -568.923     123.582
  H     -138.844    -571.564     117.471
  H     -143.876    -570.639     121.398
  H     -140.072    -570.900     121.736
  H     -142.042    -568.557     122.152
  H     -140.709    -568.157     124.220
  H     -140.766    -570.878     124.870
  H     -143.197    -570.783     125.210
  H     -142.468    -569.232     125.713
  H     -142.818    -571.926     115.385
  H     -144.071    -571.649     116.601
  P     -138.259    -568.975     124.913
  C     -135.953    -569.104     123.678
  O     -136.785    -569.582     124.729
  O     -138.843    -569.886     126.100
  O     -138.331    -567.528     125.273
  H     -138.715    -569.427     126.953
  H     -135.014    -569.616     123.706
  H     -135.790    -568.054     123.802
  H     -136.429    -569.283     122.737

 6  7  8  9  10  11  12  13  14  15  25  28  32  33  34  35 0
 6-311+G(2d,p)
 ****
 36  37  40 0
 6-311+G(2d,p)
 ****
 1  2  3  4  5  16  17  18  19  20  21  22  23  24 0
 3-21G
 ****
 26  27  29  30  31  38  39 41  42  43  44  45  46  47  48 0
 3-21G
 ****


