%nproc=1
%NoSave
%Mem=1900MB
#P OB98/GEN NMR

erre ene a

0 1
  C     -354.196     134.906      55.757
  O     -355.264     134.393      56.550
  P     -355.695     132.868      56.315
  C     -357.328     133.578      54.387
  O     -356.271     132.743      54.821
  C     -358.195     132.864      53.328
  O     -357.367     132.600      52.167
  C     -358.757     131.511      53.747
  O     -359.843     131.178      52.882
  C     -357.589     130.592      53.466
  O     -357.996     129.228      53.389
  C     -356.998     131.192      52.168
  N     -355.530     131.051      52.065
  C     -355.012     130.008      51.301
  O     -355.712     129.186      50.704
  N     -353.652     129.896      51.269
  C     -352.766     130.738      51.876
  O     -351.557     130.541      51.890
  C     -353.353     131.899      52.552
  C     -354.685     131.996      52.626
  O     -356.982     132.692      57.249
  O     -354.622     131.880      56.643
  H     -357.257     128.742      52.960
  H     -356.752     132.175      58.044
  H     -353.269     129.108      50.772
  H     -352.679     132.626      52.993
  H     -355.138     132.842      53.142
  H     -357.437     130.717      51.282
  H     -356.856     130.665      54.279
  H     -359.079     131.455      54.789
  H     -359.000     133.540      53.011
  H     -356.929     134.511      53.986
  H     -357.959     133.851      55.245
  P     -361.283     130.926      53.546
  C     -360.888     128.426      54.010
  O     -361.099     129.709      54.573
  O     -362.431     130.804      52.597
  O     -361.452     132.185      54.519
  H     -362.395     132.305      54.745
  H     -360.289     127.830      54.705
  H     -360.365     128.492      53.049
  H     -361.856     127.936      53.861
  H     -354.017     135.928      56.018
  H     -354.458     134.843      54.722
  H     -353.311     134.332      55.936

 3  4  5  6  7  8  9  10  11  12  13  23  28  29  30  31  32 0
 6-311+G(2d,p)
 ****
 33  34 0
 6-311+G(2d,p)
 ****
 1  2  14  15  16  17  18  19  20  21  22  24  25  26  27 0
 3-21G
 ****
 35  36  37  38  39  40  41  42  43  44  45 0
 3-21G
 ****


