%nproc=1
%NoSave
%Mem=1900MB
#P OB98/GEN NMR

erre ene a

0 1
  C     -292.728    -156.329     160.422
  O     -293.548    -155.490     161.213
  H     -291.683    -156.047     160.577
  H     -292.974    -156.197     159.365
  H     -292.859    -157.375     160.709
  P     -295.096    -155.891     161.306
  C     -294.632    -157.342     163.441
  O     -295.183    -157.268     162.133
  C     -295.139    -158.594     164.153
  O     -294.393    -158.832     165.362
  C     -296.579    -158.498     164.632
  O     -297.510    -158.574     163.575
  C     -296.638    -159.690     165.579
  O     -296.913    -160.910     164.880
  C     -295.209    -159.707     166.176
  N     -295.204    -159.328     167.575
  C     -295.446    -160.372     168.480
  O     -295.621    -161.518     168.067
  N     -295.517    -160.077     169.816
  C     -295.388    -158.851     170.216
  N     -295.502    -158.624     171.551
  C     -295.137    -157.724     169.295
  C     -295.058    -158.030     168.000
  O     -295.426    -156.342     159.807
  O     -295.989    -154.818     161.832
  H     -296.223    -160.992     164.189
  H     -294.782    -156.969     159.437
  H     -295.022    -156.720     169.680
  H     -294.874    -157.265     167.255
  H     -294.771    -160.712     166.090
  H     -297.426    -159.569     166.328
  H     -296.720    -157.586     165.224
  H     -294.998    -159.450     163.480
  H     -295.731    -159.417     172.139
  H     -294.888    -156.446     164.018
  H     -295.498    -157.704     171.966
  H     -293.543    -157.373     163.341
  P     -299.067    -158.819     163.855
  C     -299.313    -156.294     164.307
  O     -299.565    -157.611     164.789
  O     -299.419    -160.174     164.366
  O     -299.749    -158.455     162.450
  H     -299.594    -157.544     162.146
  H     -299.687    -155.579     165.010
  H     -299.803    -156.159     163.366
  H     -298.259    -156.155     164.184

 6  7  8  9  10  11  12  13  14  15  16  26  30  31  32  33  35 0
 6-311+G(2d,p)
 ****
 37  38 0
 6-311+G(2d,p)
 ****
 1  2  3  4  5  17  18  19  20  21  22  23  24  25 0
 3-21G
 ****
 27  28  29  34  36  39  40  41  42  43  44  45  46 0
 3-21G
 ****


