%nproc=1
%NoSave
%Mem=1900MB
#P OB98/GEN NMR

erre ene a

0 1
  C      -89.732     402.028     795.633
  O      -88.567     401.510     796.295
  P      -88.159     399.963     796.208
  C      -85.995     398.659     796.770
  O      -86.891     399.701     797.164
  C      -84.837     398.502     797.759
  O      -84.085     399.736     797.870
  C      -85.266     398.145     799.183
  O      -85.567     396.760     799.273
  C      -84.040     398.586     799.977
  O      -83.013     397.585     799.920
  C      -83.605     399.849     799.222
  N      -82.260     404.064     801.803
  C      -81.531     403.029     801.295
  N      -81.958     401.950     800.626
  C      -83.301     401.989     800.477
  C      -84.179     402.971     800.927
  C      -83.609     404.041     801.634
  N      -84.351     405.079     802.151
  N      -85.483     402.648     800.594
  C      -85.391     401.510     799.929
  N      -84.092     401.074     799.831
  O      -87.979     399.447     794.812
  O      -89.344     399.181     796.950
  H      -82.824     397.400     798.977
  H      -89.429     398.273     796.584
  H      -80.455     403.103     801.459
  H      -86.232     400.974     799.513
  H      -82.515     399.920     799.162
  H      -84.267     398.758     801.039
  H      -86.126     398.750     799.481
  H      -84.155     397.741     797.361
  H      -85.595     398.911     795.772
  H      -83.874     405.797     802.669
  H      -85.360     405.053     802.071
  H      -86.559     397.720     796.697
  P      -87.105     396.284     799.361
  C      -88.213     394.020     798.886
  O      -87.091     394.684     799.441
  O      -88.015     396.864     798.335
  O      -87.548     396.714     800.844
  H      -88.506     396.906     800.845
  H      -89.049     394.060     799.601
  H      -87.957     392.977     798.706
  H      -88.521     394.484     797.944
  H      -89.813     403.078     795.823
  H      -90.604     401.530     796.003
  H      -89.647     401.862     794.579

 3  4  5  6  7  8  9  10  11  12  22  25  29  30  31  32 0
 6-311+G(2d,p)
 ****
 33  36  37 0
 6-311+G(2d,p)
 ****
 1  2  13  14  15  16  17  18  19  20  21  23  24  26 0
 3-21G
 ****
 27  28  34  35  38  39  40  41  42  43  44  45  46  47  48 0
 3-21G
 ****


