%nproc=1
%NoSave
%Mem=1900MB
#P OB98/GEN NMR

erre ene a

0 1
  C      294.342    -195.137    -319.465
  O      295.637    -195.477    -319.018
  H      293.766    -194.757    -318.619
  H      293.847    -196.029    -319.854
  H      294.383    -194.366    -320.240
  P      296.771    -195.677    -320.134
  C      297.781    -193.304    -320.432
  O      297.911    -194.585    -319.834
  C      299.099    -192.533    -320.337
  O      299.085    -191.466    -321.334
  C      299.350    -191.887    -318.963
  O      300.750    -191.957    -318.671
  C      298.990    -190.433    -319.204
  O      299.621    -189.557    -318.278
  C      299.463    -190.260    -320.646
  N      300.587    -185.689    -322.391
  C      301.409    -186.733    -322.012
  N      302.739    -186.510    -322.045
  N      300.960    -187.901    -321.628
  C      299.610    -187.999    -321.662
  C      298.689    -187.039    -322.010
  C      299.196    -185.745    -322.418
  O      298.517    -184.775    -322.745
  N      297.409    -187.508    -321.854
  C      297.559    -188.739    -321.388
  N      298.877    -189.079    -321.254
  O      296.058    -195.124    -321.458
  O      297.257    -197.077    -320.311
  H      299.186    -189.670    -317.408
  H      295.655    -195.861    -321.949
  H      300.979    -184.806    -322.662
  H      296.755    -189.408    -321.116
  H      300.554    -190.149    -320.718
  H      297.904    -190.298    -319.127
  H      303.158    -185.647    -322.357
  H      298.778    -192.340    -318.149
  H      303.353    -187.278    -321.805
  H      299.920    -193.210    -320.605
  H      296.999    -192.742    -319.911
  H      297.484    -193.424    -321.481
  P      301.261    -193.133    -317.702
  C      301.228    -195.200    -319.279
  O      302.012    -194.239    -318.588
  O      299.902    -193.860    -317.275
  O      302.015    -192.648    -316.510
  H      299.973    -194.189    -316.361
  H      301.871    -195.862    -319.820
  H      300.573    -194.701    -319.962
  H      300.649    -195.761    -318.575

 6  7  8  9  10  11  12  13  14  15  26  29  33  34 0
 6-311+G(2d,p)
 ****
 36  38  39  40  41 0
 6-311+G(2d,p)
 ****
 1  2  3  4  5  16  17  18  19  20  21  22  23  24  25 0
 3-21G
 ****
 27  28  30  31  32  35  37  42  43  44  45  46  47 0
 3-21G
 ****
 48  49 0
 3-21G
 ****


