%nproc=1
%NoSave
%Mem=1900MB
#P OB98/GEN NMR

erre ene a

0 1
  C       91.360     226.075    -173.204
  O       90.900     225.963    -171.854
  P       89.811     224.830    -171.536
  C       90.803     222.424    -171.539
  O       90.543     223.612    -170.800
  C       90.917     221.228    -170.593
  O       90.753     219.984    -171.300
  C       92.273     221.125    -169.916
  O       92.370     222.049    -168.851
  C       92.297     219.667    -169.471
  O       91.748     219.505    -168.153
  C       91.409     218.966    -170.526
  N       92.160     218.056    -171.376
  C       92.248     216.733    -170.930
  O       91.725     216.403    -169.864
  N       92.944     215.830    -171.691
  C       93.524     216.218    -172.785
  N       94.204     215.279    -173.493
  C       93.481     217.611    -173.275
  C       92.789     218.469    -172.528
  O       89.468     224.236    -172.983
  O       88.588     225.343    -170.848
  H       92.432     219.844    -167.539
  H       88.537     223.952    -173.019
  H       93.984     217.889    -174.187
  H       92.702     219.513    -172.811
  H       90.617     218.388    -170.032
  H       93.319     219.277    -169.437
  H       93.071     221.301    -170.650
  H       90.125     221.309    -169.834
  H       94.217     214.335    -173.127
  H       91.726     222.533    -172.114
  H       94.698     215.472    -174.353
  H       89.996     222.276    -172.265
  P       93.833     222.527    -168.409
  C       93.899     224.541    -170.002
  O       93.843     224.113    -168.655
  O       94.739     222.002    -169.624
  O       94.340     222.055    -167.090
  H       95.680     222.151    -169.429
  H       93.692     225.613    -170.035
  H       93.152     224.018    -170.604
  H       94.899     224.364    -170.406
  H       92.078     226.865    -173.272
  H       90.532     226.290    -173.846
  H       91.814     225.154    -173.504

 3  4  5  6  7  8  9  10  11  12  13  21  23  27  28  29  30  32 0
 6-311+G(2d,p)
 ****
 34  35 0
 6-311+G(2d,p)
 ****
 1  2  14  15  16  17  18  19  20  22  24  25  26 0
 3-21G
 ****
 31  33  36  37  38  39  40  41  42  43  44  45  46 0
 3-21G
 ****


