%nproc=1
%NoSave
%Mem=1900MB
#P OB98/GEN NMR

erre ene a

0 1
  C     -483.942     352.458    -179.889
  O     -482.742     351.915    -180.452
  P     -481.622     352.983    -180.899
  C     -480.261     352.917    -178.687
  O     -481.057     353.695    -179.571
  C     -478.822     353.435    -178.659
  O     -478.755     354.856    -178.415
  C     -477.966     352.784    -177.584
  O     -477.530     351.503    -178.012
  C     -476.833     353.793    -177.436
  O     -475.808     353.574    -178.430
  C     -477.535     355.135    -177.675
  N     -475.865     358.546    -174.309
  C     -475.187     357.902    -175.336
  N     -473.890     358.234    -175.493
  N     -475.739     357.021    -176.125
  C     -477.042     356.786    -175.840
  C     -477.821     357.374    -174.868
  C     -477.201     358.353    -174.004
  O     -477.760     358.960    -173.097
  N     -479.123     356.925    -174.924
  C     -479.089     355.970    -175.843
  N     -477.867     355.889    -176.476
  O     -482.482     354.137    -181.622
  O     -480.595     352.413    -181.817
  H     -475.442     352.673    -178.313
  H     -482.308     354.123    -182.583
  H     -475.389     359.211    -173.728
  H     -479.917     355.335    -176.111
  H     -476.933     355.806    -178.300
  H     -476.334     353.704    -176.463
  H     -473.402     358.914    -174.931
  H     -478.532     352.716    -176.646
  H     -473.376     357.789    -176.256
  H     -478.392     353.241    -179.648
  H     -480.271     351.865    -179.005
  H     -480.718     352.950    -177.688
  P     -477.917     350.235    -177.114
  C     -479.879     349.232    -178.502
  O     -479.469     349.946    -177.341
  O     -477.836     350.813    -175.616
  O     -477.012     349.057    -177.284
  H     -477.378     350.169    -175.039
  H     -480.793     348.679    -178.275
  H     -479.105     348.528    -178.827
  H     -480.086     349.945    -179.294
  H     -484.608     351.661    -179.631
  H     -484.413     353.099    -180.604
  H     -483.701     353.020    -179.011

 3  4  5  6  7  8  9  10  11  12  23  26  30  31 0
 6-311+G(2d,p)
 ****
 33  35  36  37  38 0
 6-311+G(2d,p)
 ****
 1  2  13  14  15  16  17  18  19  20  21  22  24  25 0
 3-21G
 ****
 27  28  29  32  34  39  40  41  42  43  44  45  46  47  48  49 0
 3-21G
 ****


