%nproc=1
%NoSave
%Mem=1900MB
#P OB98/GEN NMR

erre ene a

0 1
  C      -39.755     -14.497     -29.689
  O      -38.818     -14.161     -30.698
  P      -37.253     -14.277     -30.360
  C      -37.063     -11.695     -29.913
  O      -36.892     -13.017     -29.435
  C      -36.434     -10.693     -28.939
  O      -37.157     -10.744     -27.677
  C      -34.953     -10.951     -28.630
  O      -34.325      -9.672     -28.462
  C      -35.010     -11.695     -27.306
  O      -33.793     -11.616     -26.580
  C      -36.193     -10.990     -26.633
  N      -36.797     -11.771     -25.552
  C      -36.665     -11.292     -24.252
  O      -36.056     -10.265     -23.959
  N      -37.245     -12.060     -23.274
  C      -37.868     -13.260     -23.455
  O      -38.352     -13.915     -22.539
  C      -37.932     -13.740     -24.843
  C      -37.413     -12.982     -25.811
  O      -36.604     -13.921     -31.777
  O      -36.857     -15.601     -29.798
  H      -37.107     -13.248     -32.268
  H      -33.559     -10.675     -26.483
  H      -37.195     -11.712     -22.327
  H      -38.406     -14.698     -25.026
  H      -37.448     -13.315     -26.842
  H      -35.878     -10.013     -26.249
  H      -35.227     -12.754     -27.493
  H      -34.450     -11.511     -29.423
  H      -36.569      -9.684     -29.350
  H      -38.131     -11.478     -30.007
  H      -36.613     -11.608     -30.907
  P      -32.862      -9.456     -29.098
  C      -31.845      -9.570     -26.686
  O      -31.793      -9.991     -28.031
  O      -32.729      -7.861     -28.965
  O      -32.708      -9.935     -30.503
  H      -32.966      -7.535     -28.082
  H      -31.278     -10.277     -26.073
  H      -32.873      -9.536     -26.317
  H      -31.389      -8.579     -26.594
  H      -40.748     -14.369     -30.067
  H      -39.611     -13.860     -28.842
  H      -39.614     -15.516     -29.396

 3  4  5  6  7  8  9  10  11  12  13  24  28  29  30  31  32 0
 6-311+G(2d,p)
 ****
 33  34 0
 6-311+G(2d,p)
 ****
 1  2  14  15  16  17  18  19  20  21  22  23  25  26  27 0
 3-21G
 ****
 35  36  37  38  39  40  41  42  43  44  45 0
 3-21G
 ****


