%nproc=1
%NoSave
%Mem=1900MB
#P OB98/GEN NMR

erre ene a

0 1
  C      217.572    -240.220     614.367
  O      217.304    -239.379     615.496
  P      218.114    -239.688     616.845
  C      219.766    -237.697     616.594
  O      219.596    -239.105     616.680
  C      221.230    -237.365     616.311
  O      221.687    -237.923     615.065
  C      221.490    -235.867     616.185
  O      221.484    -235.241     617.464
  C      222.846    -235.859     615.492
  O      223.900    -236.112     616.445
  C      222.717    -237.056     614.538
  N      224.550    -235.260     610.112
  C      225.164    -235.540     611.290
  N      224.598    -236.003     612.424
  C      223.277    -236.203     612.249
  C      222.529    -235.959     611.119
  C      223.213    -235.469     609.996
  N      222.610    -235.162     608.803
  N      221.195    -236.281     611.329
  C      221.143    -236.686     612.575
  N      222.367    -236.661     613.171
  O      218.317    -241.270     616.794
  O      217.400    -239.259     618.093
  H      223.964    -235.309     617.011
  H      217.752    -241.705     617.458
  H      226.225    -235.360     611.322
  H      220.237    -236.978     613.098
  H      223.643    -237.645     614.476
  H      223.066    -234.915     615.007
  H      220.741    -235.395     615.543
  H      221.839    -237.773     617.127
  H      219.451    -237.223     617.532
  H      223.169    -234.720     608.080
  H      221.603    -235.218     608.740
  H      219.113    -237.305     615.799
  P      220.231    -234.301     617.838
  C      219.785    -235.827     619.867
  O      219.253    -235.285     618.666
  O      219.481    -234.186     616.426
  O      220.582    -233.017     618.507
  H      219.417    -235.045     615.977
  H      219.024    -236.436     620.341
  H      220.061    -235.028     620.552
  H      220.663    -236.452     619.642
  H      216.970    -239.908     613.539
  H      217.340    -241.235     614.615
  H      218.606    -240.145     614.104

 3  4  5  6  7  8  9  10  11  12  22  25  29  30  31  32 0
 6-311+G(2d,p)
 ****
 33  36  37 0
 6-311+G(2d,p)
 ****
 1  2  13  14  15  16  17  18  19  20  21  23  24  26 0
 3-21G
 ****
 27  28  34  35  38  39  40  41  42  43  44  45  46  47  48 0
 3-21G
 ****


