%nproc=1
%NoSave
%Mem=1900MB
#P OB98/GEN NMR

erre ene a

0 1
  C     -482.976      44.223     163.113
  O     -482.355      44.190     164.383
  P     -482.770      43.168     165.537
  C     -482.065      45.000     167.243
  O     -483.021      44.004     166.889
  C     -482.677      46.161     168.046
  O     -483.364      47.059     167.146
  C     -483.738      45.630     169.019
  O     -483.356      45.116     170.279
  C     -484.810      46.715     169.070
  O     -484.670      47.571     170.202
  C     -484.581      47.506     167.774
  N     -489.085      49.308     166.293
  C     -488.156      49.877     167.143
  N     -488.568      50.967     167.826
  N     -486.952      49.405     167.323
  C     -486.717      48.251     166.641
  C     -487.550      47.599     165.761
  C     -488.867      48.158     165.546
  O     -489.748      47.633     164.866
  N     -487.004      46.423     165.318
  C     -485.857      46.330     165.964
  N     -485.658      47.401     166.806
  O     -481.985      41.895     165.623
  O     -484.272      42.781     165.094
  H     -484.959      47.080     170.991
  H     -484.424      41.846     165.341
  H     -490.029      49.673     166.256
  H     -485.160      45.507     165.881
  H     -484.446      48.568     167.991
  H     -485.808      46.273     169.131
  H     -489.538      51.276     167.826
  H     -484.228      44.780     168.520
  H     -487.979      51.313     168.583
  H     -481.897      46.759     168.529
  H     -481.612      45.366     166.316
  H     -481.264      44.543     167.836
  P     -483.946      43.809     170.982
  C     -484.052      44.815     173.335
  O     -484.798      44.261     172.262
  O     -482.666      43.093     171.642
  O     -484.655      42.854     170.064
  H     -482.854      42.143     171.784
  H     -484.664      44.809     174.238
  H     -483.794      45.855     173.095
  H     -483.141      44.239     173.510
  H     -482.527      44.989     162.516
  H     -484.019      44.429     163.231
  H     -482.852      43.276     162.630

 3  4  5  6  7  8  9  10  11  12  23  26  30  31 0
 6-311+G(2d,p)
 ****
 33  35  36  37  38 0
 6-311+G(2d,p)
 ****
 1  2  13  14  15  16  17  18  19  20  21  22  24  25 0
 3-21G
 ****
 27  28  29  32  34  39  40  41  42  43  44  45  46  47  48  49 0
 3-21G
 ****


