%nproc=1
%NoSave
%Mem=1900MB
#P OB98/GEN NMR

erre ene a

0 1
  C      127.464    -697.335     367.776
  O      127.361    -697.386     369.205
  P      126.043    -698.062     369.822
  C      127.349    -700.225     370.439
  O      126.235    -699.654     369.774
  C      127.510    -701.690     370.040
  O      127.688    -701.861     368.621
  C      128.728    -702.361     370.668
  O      128.500    -702.642     372.043
  C      128.871    -703.590     369.792
  O      127.926    -704.607     370.191
  C      128.485    -703.045     368.405
  N      131.524    -704.645     364.616
  C      130.445    -705.225     365.213
  N      129.709    -704.734     366.225
  C      130.146    -703.519     366.591
  C      131.219    -702.815     366.078
  C      131.927    -703.424     365.038
  N      133.030    -702.856     364.431
  N      131.361    -701.594     366.725
  C      130.409    -701.571     367.626
  N      129.649    -702.704     367.586
  O      124.935    -697.774     368.704
  O      125.645    -697.505     371.159
  H      127.029    -704.254     369.992
  H      124.303    -697.106     369.018
  H      130.166    -706.199     364.833
  H      130.250    -700.779     368.345
  H      127.873    -703.755     367.835
  H      129.870    -704.034     369.847
  H      129.613    -701.721     370.564
  H      126.598    -702.227     370.346
  H      127.228    -700.140     371.522
  H      133.540    -703.412     363.748
  H      133.399    -701.995     364.805
  H      128.251    -699.649     370.172
  P      129.191    -701.682     373.141
  C      126.874    -701.000     374.045
  O      128.067    -700.551     373.417
  O      130.255    -700.890     372.244
  O      129.726    -702.379     374.339
  H      129.875    -700.585     371.400
  H      126.226    -700.133     374.203
  H      127.096    -701.443     375.016
  H      126.357    -701.732     373.400
  H      128.384    -696.863     367.501
  H      126.643    -696.775     367.379
  H      127.441    -698.329     367.381

 3  4  5  6  7  8  9  10  11  12  22  25  29  30  31  32 0
 6-311+G(2d,p)
 ****
 33  36  37 0
 6-311+G(2d,p)
 ****
 1  2  13  14  15  16  17  18  19  20  21  23  24  26 0
 3-21G
 ****
 27  28  34  35  38  39  40  41  42  43  44  45  46  47  48 0
 3-21G
 ****


