%nproc=1
%NoSave
%Mem=1900MB
#P OB98/GEN NMR

erre ene a

0 1
  C      866.348    -216.228    -542.722
  O      867.206    -217.337    -542.959
  P      866.536    -218.784    -543.176
  C      865.781    -218.311    -545.613
  O      865.375    -218.599    -544.277
  C      865.093    -219.247    -546.610
  O      865.621    -220.596    -546.431
  C      863.569    -219.347    -546.452
  O      863.020    -219.555    -547.751
  C      863.385    -220.608    -545.621
  O      862.073    -221.148    -545.757
  C      864.500    -221.479    -546.201
  N      863.519    -226.291    -544.779
  C      862.978    -225.499    -545.734
  N      863.291    -224.233    -546.064
  C      864.279    -223.770    -545.272
  C      864.898    -224.438    -544.228
  C      864.491    -225.769    -543.994
  N      865.035    -226.570    -543.020
  N      865.841    -223.634    -543.631
  C      865.788    -222.501    -544.293
  N      864.882    -222.552    -545.306
  O      865.716    -218.999    -541.815
  O      867.493    -219.897    -543.419
  H      861.932    -221.788    -545.035
  H      866.133    -219.718    -541.294
  H      862.196    -225.962    -546.335
  H      866.380    -221.623    -544.079
  H      864.223    -221.924    -547.166
  H      863.556    -220.383    -544.562
  H      863.114    -218.465    -545.984
  H      865.357    -218.925    -547.621
  H      866.864    -218.448    -545.689
  H      864.793    -227.541    -543.005
  H      865.887    -226.259    -542.558
  H      865.545    -217.271    -545.847
  P      861.611    -218.844    -548.079
  C      862.964    -216.855    -549.048
  O      861.908    -217.280    -548.200
  O      860.819    -218.976    -546.701
  O      860.863    -219.467    -549.215
  H      859.853    -218.989    -546.876
  H      862.699    -215.883    -549.481
  H      863.156    -217.566    -549.844
  H      863.879    -216.735    -548.443
  H      866.936    -215.342    -542.598
  H      865.776    -216.403    -541.835
  H      865.687    -216.104    -543.554

 3  4  5  6  7  8  9  10  11  12  22  25  29  30  31  32 0
 6-311+G(2d,p)
 ****
 33  36  37 0
 6-311+G(2d,p)
 ****
 1  2  13  14  15  16  17  18  19  20  21  23  24  26 0
 3-21G
 ****
 27  28  34  35  38  39  40  41  42  43  44  45  46  47  48 0
 3-21G
 ****


