%nproc=1
%NoSave
%Mem=1900MB
#P OB98/GEN NMR

erre ene a

0 1
  C      191.969     -86.614      66.726
  O      190.806     -86.165      66.056
  P      190.885     -84.762      65.285
  C      189.966     -83.452      67.346
  O      191.013     -83.615      66.398
  C      190.448     -82.567      68.500
  O      191.450     -83.259      69.278
  C      191.108     -81.275      68.041
  O      190.142     -80.303      67.666
  C      191.913     -80.885      69.272
  O      191.092     -80.194      70.229
  C      192.344     -82.263      69.816
  N      193.740     -82.570      69.523
  C      194.651     -82.311      70.544
  O      194.317     -81.829      71.629
  N      195.960     -82.584      70.265
  C      196.450     -83.028      69.073
  O      197.646     -83.204      68.863
  C      195.446     -83.258      68.017
  C      194.162     -83.016      68.286
  O      189.408     -84.561      64.703
  O      191.919     -84.700      64.212
  H      190.728     -79.411      69.770
  H      189.451     -84.117      63.834
  H      196.631     -82.426      70.999
  H      195.800     -83.612      67.058
  H      193.409     -83.166      67.519
  H      192.207     -82.295      70.905
  H      192.747     -80.221      69.027
  H      191.798     -81.477      67.211
  H      189.595     -82.355      69.152
  H      189.671     -84.430      67.729
  H      189.104     -82.998      66.849
  P      190.590     -79.215      66.573
  C      190.848     -77.376      68.414
  O      191.453     -78.136      67.390
  O      189.191     -78.496      66.279
  O      191.247     -79.823      65.380
  H      188.615     -78.474      67.063
  H      190.100     -77.962      68.959
  H      190.370     -76.495      67.980
  H      191.622     -77.053      69.115
  H      191.771     -87.556      67.192
  H      192.250     -85.899      67.471
  H      192.766     -86.726      66.021

 3  4  5  6  7  8  9  10  11  12  13  23  28  29  30  31  32 0
 6-311+G(2d,p)
 ****
 33  34 0
 6-311+G(2d,p)
 ****
 1  2  14  15  16  17  18  19  20  21  22  24  25  26 0
 3-21G
 ****
 27  35  36  37  38  39  40  41  42  43  44  45 0
 3-21G
 ****


