%nproc=1
%NoSave
%Mem=1900MB
#P OB98/GEN NMR

erre ene a

0 1
  C      -72.502     -51.496      91.199
  O      -73.417     -50.517      91.655
  H      -71.966     -51.904      92.060
  H      -71.779     -51.038      90.518
  H      -73.030     -52.307      90.692
  P      -74.463     -49.964      90.576
  C      -73.336     -47.600      90.437
  O      -74.501     -48.362      90.724
  C      -73.234     -46.419      91.397
  O      -72.019     -45.677      91.169
  C      -74.328     -45.379      91.227
  O      -75.578     -45.820      91.709
  C      -73.744     -44.222      92.026
  O      -74.028     -44.347      93.424
  C      -72.226     -44.372      91.760
  N      -71.716     -43.300      90.927
  C      -71.398     -42.114      91.604
  O      -71.539     -42.044      92.825
  N      -70.968     -41.037      90.875
  C      -70.888     -41.123      89.584
  N      -70.486     -40.007      88.918
  C      -71.215     -42.351      88.832
  C      -71.619     -43.392      89.560
  O      -75.867     -50.420      91.192
  O      -74.228     -50.431      89.180
  H      -73.600     -43.582      93.861
  H      -75.974     -50.197      92.131
  H      -71.119     -42.376      87.757
  H      -71.879     -44.333      89.089
  H      -71.668     -44.367      92.705
  H      -74.153     -43.262      91.702
  H      -74.393     -45.068      90.176
  H      -73.214     -46.813      92.422
  H      -70.326     -39.171      89.468
  H      -73.354     -47.247      89.401
  H      -70.463     -39.932      87.912
  H      -72.471     -48.260      90.548
  P      -76.939     -45.457      90.949
  C      -77.521     -43.924      92.936
  O      -77.977     -44.959      92.072
  O      -77.472     -46.519      90.049
  O      -76.580     -44.087      90.199
  H      -76.309     -43.359      90.784
  H      -78.292     -43.678      93.636
  H      -77.276     -43.058      92.357
  H      -76.653     -44.257      93.465

 6  7  8  9  10  11  12  13  14  15  16  26  30  31  32  33  35 0
 6-311+G(2d,p)
 ****
 37  38 0
 6-311+G(2d,p)
 ****
 1  2  3  4  5  17  18  19  20  21  22  23  24  25 0
 3-21G
 ****
 27  28  29  34  36  39  40  41  42  43  44  45  46 0
 3-21G
 ****


