%nproc=1
%NoSave
%Mem=1900MB
#P OB98/GEN NMR

erre ene a

0 1
  C     -181.207     261.802     -89.566
  O     -180.466     260.581     -89.546
  P     -178.866     260.708     -89.583
  C     -178.542     258.365     -88.523
  O     -178.234     259.230     -89.608
  C     -179.780     257.505     -88.809
  O     -179.682     256.871     -90.114
  C     -180.005     256.393     -87.780
  O     -181.415     256.215     -87.643
  C     -179.424     255.170     -88.469
  O     -179.944     253.968     -87.908
  C     -179.827     255.447     -89.927
  N     -179.036     254.691     -90.896
  C     -179.678     253.647     -91.564
  O     -180.843     253.353     -91.280
  N     -178.983     252.935     -92.510
  C     -177.736     253.209     -92.727
  N     -177.099     252.466     -93.672
  C     -176.998     254.261     -92.002
  C     -177.706     254.956     -91.115
  O     -178.502     261.254     -88.124
  O     -178.363     261.627     -90.651
  H     -179.648     253.216     -88.467
  H     -177.907     262.023     -88.196
  H     -175.951     254.440     -92.204
  H     -177.255     255.751     -90.534
  H     -180.884     255.194     -90.088
  H     -178.332     255.161     -88.367
  H     -179.558     256.603     -86.806
  H     -180.655     258.167     -88.832
  H     -177.641     251.758     -94.154
  H     -178.716     258.949     -87.618
  H     -176.128     252.589     -93.922
  H     -177.669     257.736     -88.315
  P     -182.168     257.010     -86.472
  C     -184.330     257.166     -87.851
  O     -183.724     256.663     -86.677
  O     -182.107     258.520     -87.019
  O     -181.635     256.913     -85.083
  H     -182.475     259.123     -86.350
  H     -185.341     256.755     -87.926
  H     -183.760     256.865     -88.736
  H     -184.398     258.258     -87.797
  H     -182.254     261.584     -89.538
  H     -180.979     262.343     -90.461
  H     -180.943     262.394     -88.714

 3  4  5  6  7  8  9  10  11  12  13  21  23  27  28  29  30  32 0
 6-311+G(2d,p)
 ****
 34  35 0
 6-311+G(2d,p)
 ****
 1  2  14  15  16  17  18  19  20  22  24  25  26 0
 3-21G
 ****
 31  33  36  37  38  39  40  41  42  43  44  45  46 0
 3-21G
 ****


