%nproc=1
%NoSave
%Mem=1900MB
#P OB98/GEN NMR

erre ene a

0 1
  C      150.531    -247.417    -912.964
  O      150.957    -247.091    -911.656
  H      149.790    -248.223    -912.924
  H      150.064    -246.537    -913.416
  H      151.384    -247.723    -913.571
  P      151.631    -248.266    -910.798
  C      150.430    -247.641    -908.580
  O      151.669    -247.772    -909.266
  C      150.663    -247.108    -907.161
  O      151.297    -245.804    -907.269
  C      149.394    -246.958    -906.318
  O      149.503    -247.732    -905.116
  C      149.363    -245.483    -905.940
  O      148.948    -245.260    -904.587
  C      150.792    -245.025    -906.171
  N      151.429    -240.392    -904.133
  C      151.787    -241.621    -903.691
  N      151.685    -242.807    -904.333
  C      151.171    -242.640    -905.569
  C      150.778    -241.446    -906.162
  C      150.902    -240.281    -905.379
  N      150.489    -239.043    -905.814
  N      150.286    -241.676    -907.435
  C      150.347    -242.982    -907.588
  N      150.849    -243.610    -906.482
  O      153.169    -248.216    -911.248
  O      151.039    -249.624    -911.003
  H      148.230    -245.896    -904.409
  H      153.477    -249.120    -911.459
  H      152.202    -241.658    -902.691
  H      149.990    -243.532    -908.458
  H      151.436    -245.212    -905.300
  H      148.661    -244.965    -906.600
  H      148.483    -247.247    -906.853
  H      151.386    -247.772    -906.662
  H      149.947    -248.618    -908.511
  H      150.508    -238.288    -905.143
  H      149.998    -238.970    -906.690
  H      149.779    -246.967    -909.147
  P      148.142    -248.335    -904.513
  C      148.847    -248.060    -902.017
  O      148.483    -248.956    -903.071
  O      147.892    -249.639    -905.417
  O      146.991    -247.387    -904.561
  H      146.933    -249.847    -905.451
  H      149.043    -248.619    -901.126
  H      148.045    -247.374    -901.839
  H      149.725    -247.517    -902.298

 6  7  8  9  10  11  12  13  14  15  25  28  32  33  34  35 0
 6-311+G(2d,p)
 ****
 36  39  40 0
 6-311+G(2d,p)
 ****
 1  2  3  4  5  16  17  18  19  20  21  22  23  24 0
 3-21G
 ****
 26  27  29  30  31  37  38  41  42  43  44  45  46  47  48 0
 3-21G
 ****


