%nproc=1
%NoSave
%Mem=1900MB
#P OB98/GEN NMR

erre ene a

0 1
  C      443.320     114.370    -341.964
  O      443.321     115.458    -341.060
  P      441.943     116.105    -340.538
  C      441.628     114.612    -338.452
  O      441.967     115.907    -338.950
  C      442.599     114.223    -337.337
  O      443.841     113.769    -337.915
  C      442.978     115.362    -336.397
  O      441.928     115.632    -335.478
  C      444.259     114.821    -335.785
  O      443.959     113.871    -334.744
  C      444.901     114.088    -336.985
  N      445.947     114.881    -337.631
  C      447.267     114.535    -337.331
  O      447.521     113.610    -336.553
  N      448.281     115.233    -337.930
  C      448.005     116.202    -338.749
  N      449.054     116.811    -339.371
  C      446.635     116.632    -339.057
  C      445.659     115.934    -338.473
  O      440.716     115.592    -341.212
  O      442.153     117.679    -340.696
  H      444.810     113.528    -334.413
  H      441.894     118.028    -341.584
  H      446.455     117.457    -339.734
  H      444.626     116.171    -338.658
  H      445.328     113.135    -336.662
  H      444.896     115.597    -335.348
  H      443.193     116.272    -336.967
  H      442.154     113.392    -336.771
  H      449.961     116.370    -339.265
  H      441.712     113.891    -339.269
  H      448.922     117.361    -340.208
  H      440.601     114.624    -338.090
  P      441.374     117.135    -335.406
  C      439.666     117.243    -337.348
  O      439.864     117.077    -335.959
  O      442.197     117.889    -336.551
  O      441.537     117.787    -334.069
  H      442.931     118.403    -336.159
  H      438.645     116.945    -337.586
  H      440.357     116.609    -337.922
  H      439.804     118.286    -337.628
  H      444.329     114.090    -342.186
  H      442.823     114.657    -342.867
  H      442.808     113.540    -341.523

 3  4  5  6  7  8  9  10  11  12  13  23  27  28  29  30  32 0
 6-311+G(2d,p)
 ****
 34  35 0
 6-311+G(2d,p)
 ****
 1  2  14  15  16  17  18  19  20  21  22  24  25  26 0
 3-21G
 ****
 31  33  36  37  38  39  40  41  42  43  44  45  46 0
 3-21G
 ****


