%nproc=1
%NoSave
%Mem=1900MB
#P OB98/GEN NMR

erre ene a

0 1
  C      -14.073     -75.054     -47.714
  O      -12.975     -75.916     -47.470
  P      -13.075     -77.481     -47.791
  C      -11.590     -77.438     -49.884
  O      -12.902     -77.660     -49.383
  C      -10.724     -78.689     -49.747
  O      -11.372     -79.799     -50.435
  C       -9.307     -78.557     -50.329
  O       -8.443     -79.347     -49.505
  C       -9.443     -79.215     -51.695
  O       -8.197     -79.637     -52.236
  C      -10.408     -80.348     -51.354
  N       -9.819     -82.834     -55.795
  C       -8.921     -82.416     -54.872
  N       -9.156     -81.736     -53.725
  C      -10.471     -81.496     -53.576
  C      -11.498     -81.836     -54.446
  C      -11.128     -82.554     -55.600
  N      -12.032     -83.022     -56.531
  N      -12.709     -81.363     -53.970
  C      -12.415     -80.755     -52.837
  N      -11.090     -80.868     -52.528
  O      -14.264     -78.174     -47.210
  O      -11.710     -78.084     -47.209
  H       -7.850     -80.362     -51.682
  H      -11.890     -78.574     -46.383
  H       -7.881     -82.665     -55.071
  H      -13.117     -80.219     -52.207
  H       -9.901     -81.184     -50.861
  H       -9.896     -78.505     -52.399
  H       -8.946     -77.526     -50.392
  H      -10.675     -78.955     -48.683
  H      -11.144     -76.622     -49.306
  H      -11.677     -83.639     -57.248
  H      -13.022     -83.058     -56.286
  H      -11.643     -77.130     -50.935
  P       -6.940     -78.853     -49.214
  C       -7.811     -77.992     -46.963
  O       -7.048     -77.692     -48.122
  O       -6.133     -78.527     -50.429
  O       -6.304     -80.074     -48.384
  H       -5.328     -80.006     -48.406
  H       -8.877     -77.864     -47.189
  H       -7.531     -77.304     -46.159
  H       -7.632     -79.018     -46.632
  H      -13.810     -74.055     -47.436
  H      -14.914     -75.375     -47.136
  H      -14.324     -75.081     -48.754

 3  4  5  6  7  8  9  10  11  12  22  25  29  30  31  32 0
 6-311+G(2d,p)
 ****
 33  36  37 0
 6-311+G(2d,p)
 ****
 1  2  13  14  15  16  17  18  19  20  21  23  24  26 0
 3-21G
 ****
 27  28  34  35  38  39  40  41  42  43  44  45  46  47  48 0
 3-21G
 ****


