%nproc=1
%NoSave
%Mem=1900MB
#P OB98/GEN NMR

erre ene a

0 1
  C       86.733     239.899     130.103
  O       88.141     239.753     130.153
  P       88.760     239.011     131.435
  C       90.570     240.818     131.902
  O       90.290     239.477     131.512
  C       92.059     240.989     132.193
  O       92.505     239.958     133.092
  C       92.946     240.875     130.966
  O       92.902     242.066     130.208
  C       94.303     240.594     131.602
  O       94.971     241.817     131.954
  C       93.924     239.789     132.866
  N       94.280     238.382     132.761
  C       95.650     238.109     132.643
  O       96.464     239.035     132.615
  N       96.051     236.802     132.524
  C       95.164     235.856     132.514
  N       95.620     234.578     132.397
  C       93.713     236.104     132.614
  C       93.345     237.379     132.728
  O       88.854     237.487     130.964
  O       87.967     239.171     132.692
  H       94.366     242.280     132.568
  H       88.816     236.883     131.728
  H       93.015     235.279     132.603
  H       92.297     237.650     132.806
  H       94.429     240.202     133.747
  H       94.967     240.053     130.921
  H       92.644     240.021     130.351
  H       92.205     241.959     132.687
  H       96.621     234.441     132.323
  H       90.002     241.058     132.807
  H       95.013     233.772     132.403
  H       90.252     241.494     131.101
  P       92.027     242.064     128.866
  C       93.735     243.745     127.957
  O       92.365     243.457     128.152
  O       90.548     242.328     129.430
  O       92.092     240.845     128.011
  H       89.898     242.251     128.708
  H       93.823     244.634     127.328
  H       94.235     242.910     127.458
  H       94.216     243.945     128.918
  H       86.459     240.407     129.202
  H       86.403     240.467     130.947
  H       86.273     238.933     130.122

 3  4  5  6  7  8  9  10  11  12  13  21  23  27  28  29  30  32 0
 6-311+G(2d,p)
 ****
 34  35 0
 6-311+G(2d,p)
 ****
 1  2  14  15  16  17  18  19  20  22  24  25  26 0
 3-21G
 ****
 31  33  36  37  38  39  40  41  42  43  44  45  46 0
 3-21G
 ****


