%nproc=1
%NoSave
%Mem=1900MB
#P OB98/GEN NMR

erre ene a

0 1
  C      151.252     706.358     236.662
  O      152.065     706.476     237.815
  H      150.266     705.998     236.963
  H      151.689     705.646     235.955
  H      151.136     707.335     236.179
  P      153.572     706.986     237.633
  C      154.529     704.958     236.355
  O      154.485     705.669     237.586
  C      155.429     703.732     236.491
  O      156.796     704.127     236.684
  C      155.059     702.830     237.675
  O      153.968     701.987     237.335
  C      156.366     702.068     237.860
  O      156.482     701.055     236.842
  C      157.408     703.179     237.623
  N      159.980     702.945     241.980
  C      159.758     701.965     241.030
  N      160.248     700.742     241.305
  N      159.089     702.162     239.930
  C      158.593     703.425     239.819
  C      158.739     704.476     240.709
  C      159.538     704.255     241.891
  O      159.774     705.100     242.755
  N      158.043     705.574     240.287
  C      157.510     705.221     239.139
  N      157.795     703.908     238.818
  O      154.048     708.018     238.620
  O      153.624     707.527     236.130
  H      155.602     700.646     236.749
  H      153.432     708.478     236.087
  H      160.494     702.722     242.817
  H      156.907     705.861     238.503
  H      158.321     702.803     237.155
  H      156.445     701.574     238.827
  H      160.510     700.471     242.247
  H      154.868     703.410     238.584
  H      160.048     699.996     240.649
  H      155.378     703.170     235.552
  H      154.934     705.634     235.596
  H      153.519     704.646     236.059
  P      152.665     701.897     238.279
  C      153.873     700.292     239.906
  O      152.784     700.473     239.016
  O      151.371     702.141     237.589
  O      152.969     702.929     239.467
  H      152.677     703.853     239.276
  H      153.832     699.308     240.324
  H      153.816     701.016     240.692
  H      154.793     700.416     239.374

 6  7  8  9  10  11  12  13  14  15  26  29  33  34 0
 6-311+G(2d,p)
 ****
 36  38  39  40  41 0
 6-311+G(2d,p)
 ****
 1  2  3  4  5  16  17  18  19  20  21  22  23  24  25 0
 3-21G
 ****
 27  28  30  31  32  35  37  42  43  44  45  46  47 0
 3-21G
 ****
 48  49 0
 3-21G
 ****


