%nproc=1
%NoSave
%Mem=1900MB
#P OB98/GEN NMR

erre ene a

0 1
  C       84.493    -246.412      56.937
  O       84.484    -245.125      56.348
  H       85.364    -246.960      56.568
  H       83.588    -246.956      56.654
  H       84.559    -246.332      58.026
  P       83.383    -244.091      56.893
  C       83.473    -242.512      58.989
  O       84.159    -243.132      57.917
  C       83.968    -241.078      59.189
  O       85.338    -241.122      59.664
  C       83.943    -240.235      57.913
  O       83.609    -238.891      58.265
  C       85.384    -240.285      57.432
  O       85.707    -239.184      56.588
  C       86.144    -240.330      58.768
  N       87.490    -240.880      58.625
  C       88.525    -239.963      58.421
  O       88.282    -238.757      58.354
  N       89.803    -240.430      58.253
  C       90.022    -241.707      58.226
  N       91.307    -242.108      58.031
  C       88.955    -242.714      58.391
  C       87.728    -242.235      58.595
  O       82.497    -245.025      57.843
  O       82.612    -243.391      55.824
  H       86.652    -239.255      56.331
  H       83.026    -245.609      58.413
  H       89.185    -243.768      58.350
  H       86.885    -242.901      58.735
  H       86.227    -239.323      59.197
  H       85.559    -241.207      56.865
  H       83.234    -240.610      57.172
  H       83.372    -240.612      59.982
  H       92.004    -241.386      57.898
  H       83.619    -243.078      59.914
  H       91.585    -243.074      57.936
  H       82.404    -242.515      58.754
  P       82.072    -238.473      58.413
  C       80.965    -239.364      60.574
  O       81.711    -238.316      59.967
  O       81.103    -239.275      57.613
  O       82.074    -236.944      57.909
  H       81.274    -236.808      57.367
  H       80.796    -239.131      61.605
  H       81.513    -240.280      60.501
  H       80.025    -239.469      60.073

 6  7  8  9  10  11  12  13  14  15  16  26  30  31  32  33  35 0
 6-311+G(2d,p)
 ****
 37  38 0
 6-311+G(2d,p)
 ****
 1  2  3  4  5  17  18  19  20  21  22  23  24  25 0
 3-21G
 ****
 27  28  29  34  36  39  40  41  42  43  44  45  46 0
 3-21G
 ****


