%nproc=1
%NoSave
%Mem=1900MB
#P OB98/GEN NMR

erre ene a

0 1
  C     -292.454      46.673     118.048
  O     -293.796      46.364     118.370
  H     -292.426      47.119     117.051
  H     -291.848      45.763     118.045
  H     -292.046      47.389     118.767
  P     -294.057      45.715     119.814
  C     -296.504      46.589     119.847
  O     -295.637      45.464     119.919
  C     -297.906      46.131     119.449
  O     -297.892      45.638     118.089
  C     -298.440      44.982     120.292
  O     -298.924      45.413     121.551
  C     -299.527      44.432     119.381
  O     -300.746      45.175     119.514
  C     -298.930      44.637     117.985
  N     -300.128      40.106     115.962
  C     -300.890      41.160     116.330
  N     -300.491      42.339     116.852
  C     -299.151      42.383     116.953
  C     -298.246      41.391     116.615
  C     -298.784      40.203     116.094
  N     -298.014      39.119     115.742
  N     -296.957      41.791     116.902
  C     -297.079      43.007     117.396
  N     -298.385      43.407     117.442
  O     -293.797      46.938     120.813
  O     -293.201      44.538     120.143
  H     -301.072      45.006     120.419
  H     -292.902      46.862     121.195
  H     -301.959      41.034     116.200
  H     -296.258      43.628     117.736
  H     -299.669      45.009     117.268
  H     -299.744      43.390     119.620
  H     -297.666      44.215     120.418
  H     -298.581      46.996     119.492
  H     -296.128      47.291     119.096
  H     -296.523      47.086     120.822
  H     -298.470      38.275     115.439
  H     -297.021      39.140     115.943
  P     -298.578      44.512     122.830
  C     -298.604      46.348     124.684
  O     -299.243      45.219     124.105
  O     -297.007      44.740     123.047
  O     -298.911      43.067     122.680
  H     -296.592      43.917     123.367
  H     -299.177      46.693     125.519
  H     -298.530      47.128     123.956
  H     -297.624      46.073     125.013

 6  7  8  9  10  11  12  13  14  15  25  28  32  33  34  35 0
 6-311+G(2d,p)
 ****
 36  37  40 0
 6-311+G(2d,p)
 ****
 1  2  3  4  5  16  17  18  19  20  21  22  23  24 0
 3-21G
 ****
 26  27  29  30  31  38  39 41  42  43  44  45  46  47  48 0
 3-21G
 ****


