%nproc=1
%NoSave
%Mem=1900MB
#P OB98/GEN NMR

erre ene a

0 1
  C      159.360      81.138     -58.415
  O      158.546      80.929     -57.282
  H      160.385      80.852     -58.168
  H      159.349      82.195     -58.689
  H      159.024      80.532     -59.261
  P      156.954      80.990     -57.449
  C      156.700      78.429     -57.620
  O      156.534      79.679     -58.274
  C      155.423      77.589     -57.718
  O      155.099      77.388     -59.124
  C      155.539      76.200     -57.072
  O      154.239      75.844     -56.585
  C      155.911      75.336     -58.261
  O      155.687      73.969     -57.998
  C      155.044      75.967     -59.353
  N      155.493      75.609     -60.698
  C      154.899      74.493     -61.273
  O      154.060      73.801     -60.694
  N      155.330      74.161     -62.527
  C      156.322      74.789     -63.221
  O      156.692      74.430     -64.331
  C      156.947      75.938     -62.545
  C      156.507      76.294     -61.334
  O      156.407      82.269     -57.989
  O      156.391      80.672     -55.984
  H      155.980      73.745     -57.087
  H      155.537      81.125     -55.847
  H      154.901      73.360     -62.963
  H      157.742      76.453     -63.063
  H      156.948      77.134     -60.811
  H      153.998      75.648     -59.249
  H      156.973      75.451     -58.503
  H      156.274      76.161     -56.266
  H      154.595      78.159     -57.280
  H      156.934      78.627     -56.569
  H      157.536      77.887     -58.074
  P      153.875      75.871     -55.021
  C      152.821      78.219     -54.891
  O      153.917      77.392     -54.511
  O      154.675      74.924     -54.189
  O      152.318      75.503     -54.960
  H      152.115      75.074     -54.107
  H      152.962      79.203     -54.494
  H      151.912      77.806     -54.506
  H      152.766      78.269     -55.958

 6  7  8  9  10  11  12  13  14  15  16  26  31  32  33  34  35 0
 6-311+G(2d,p)
 ****
 36  37 0
 6-311+G(2d,p)
 ****
 1  2  3  4  5  17  18  19  20  21  22  23  24  25 0
 3-21G
 ****
 27  28  29  30  38  39  40  41  42  43  44  45 0
 3-21G
 ****


