%nproc=1
%NoSave
%Mem=1900MB
#P OB98/GEN NMR

erre ene a

0 1
  C      -83.039    -475.856    -667.268
  O      -82.494    -476.490    -666.109
  P      -80.931    -476.296    -665.768
  C      -80.454    -478.805    -665.496
  O      -80.440    -477.526    -664.861
  C      -79.770    -479.883    -664.642
  O      -78.337    -479.951    -664.958
  C      -79.887    -479.672    -663.129
  O      -80.001    -480.976    -662.530
  C      -78.556    -479.031    -662.776
  O      -78.256    -479.120    -661.384
  C      -77.624    -479.813    -663.704
  N      -76.344    -479.138    -663.901
  C      -75.263    -479.575    -663.127
  O      -75.441    -480.415    -662.240
  N      -74.036    -479.015    -663.342
  C      -73.918    -478.021    -664.172
  N      -72.660    -477.506    -664.372
  C      -75.064    -477.412    -664.875
  C      -76.227    -478.037    -664.719
  O      -80.552    -474.938    -665.252
  O      -80.221    -476.585    -667.180
  H      -77.403    -478.665    -661.210
  H      -79.433    -476.008    -667.266
  H      -74.935    -476.521    -665.479
  H      -77.131    -477.676    -665.185
  H      -77.437    -480.825    -663.317
  H      -78.576    -477.965    -663.047
  H      -80.753    -479.072    -662.842
  H      -80.200    -480.869    -664.910
  H      -71.891    -477.907    -663.875
  H      -79.942    -478.732    -666.460
  H      -72.489    -476.763    -665.029
  H      -81.494    -479.092    -665.727
  P      -81.459    -481.554    -662.191
  C      -81.667    -480.742    -659.730
  O      -81.519    -481.829    -660.616
  O      -81.377    -483.050    -662.795
  O      -82.614    -480.829    -662.812
  H      -82.277    -483.346    -663.005
  H      -81.970    -481.129    -658.742
  H      -82.418    -480.035    -660.075
  H      -80.704    -480.231    -659.613
  H      -84.081    -476.087    -667.344
  H      -82.530    -476.210    -668.140
  H      -82.914    -474.796    -667.187

 3  4  5  6  7  8  9  10  11  12  13  23  27  28  29  30  32 0
 6-311+G(2d,p)
 ****
 34  35 0
 6-311+G(2d,p)
 ****
 1  2  14  15  16  17  18  19  20  21  22  24  25  26 0
 3-21G
 ****
 31  33  36  37  38  39  40  41  42  43  44  45  46 0
 3-21G
 ****


