%nproc=1
%NoSave
%Mem=1900MB
#P OB98/GEN NMR

erre ene a

0 1
  C       52.402     -74.724     -20.672
  O       51.585     -73.577     -20.853
  P       49.997     -73.766     -20.731
  C       49.821     -73.979     -23.303
  O       49.532     -74.568     -22.043
  C       49.325     -74.862     -24.443
  O       49.189     -74.050     -25.642
  C       50.257     -76.035     -24.783
  O       49.469     -77.217     -24.995
  C       50.857     -75.636     -26.121
  O       51.270     -76.767     -26.879
  C       49.690     -74.856     -26.727
  N       49.391     -74.455     -31.751
  C       48.708     -75.292     -30.891
  N       47.870     -76.185     -31.460
  N       48.837     -75.260     -29.591
  C       49.686     -74.294     -29.160
  C       50.414     -73.401     -29.911
  C       50.306     -73.489     -31.353
  O       50.951     -72.838     -32.171
  N       51.151     -72.563     -29.116
  C       50.876     -72.950     -27.885
  N       50.029     -74.030     -27.861
  O       49.444     -72.284     -20.975
  O       49.518     -74.316     -19.433
  H       50.466     -77.272     -27.102
  H       48.888     -72.011     -20.219
  H       49.268     -74.534     -32.745
  H       51.288     -72.503     -26.989
  H       48.892     -75.542     -27.039
  H       51.726     -74.994     -25.947
  H       47.697     -76.240     -32.450
  H       51.024     -76.235     -24.028
  H       47.344     -76.792     -30.845
  H       48.321     -75.227     -24.189
  H       50.905     -73.846     -23.398
  H       49.341     -72.996     -23.353
  P       49.884     -78.504     -24.128
  C       51.207     -79.609     -26.080
  O       51.238     -79.051     -24.781
  O       48.791     -79.596     -24.541
  O       49.918     -78.256     -22.656
  H       48.688     -80.261     -23.834
  H       50.242     -79.451     -26.572
  H       51.397     -80.682     -26.012
  H       51.991     -79.146     -26.684
  H       53.431     -74.450     -20.781
  H       52.150     -75.461     -21.406
  H       52.241     -75.125     -19.693

 3  4  5  6  7  8  9  10  11  12  23  26  30  31  33  0
 6-311+G(2d,p)
 ****
 35  36  37  38 0
 6-311+G(2d,p)
 ****
 1  2  13  14  15  16  17  18  19  20  21  22  24  25  27  28  29 0
 3-21G
 ****
 32  34  39  40  41  42  43  44  45  46  47  48  49 0
 3-21G
 ****


