%nproc=1
%NoSave
%Mem=1900MB
#P OB98/GEN NMR

erre ene a

0 1
  C     1261.509    -182.547     592.783
  O     1260.443    -183.277     592.219
  H     1261.123    -181.907     593.585
  H     1261.980    -181.922     592.032
  H     1262.245    -183.234     593.214
  P     1260.777    -184.206     590.961
  C     1261.412    -183.735     588.478
  O     1260.805    -183.245     589.672
  C     1260.397    -183.690     587.340
  O     1260.182    -182.319     586.929
  C     1260.857    -184.432     586.087
  O     1260.675    -185.835     586.182
  C     1259.931    -183.809     585.042
  O     1258.656    -184.469     585.007
  C     1259.794    -182.359     585.524
  N     1260.593    -181.439     584.719
  C     1260.111    -181.208     583.434
  O     1259.101    -181.726     582.985
  N     1260.886    -180.386     582.652
  C     1262.079    -179.820     583.005
  O     1262.748    -179.134     582.250
  C     1262.535    -180.107     584.375
  C     1261.795    -180.896     585.156
  O     1259.441    -185.063     590.771
  O     1261.977    -185.072     591.127
  H     1259.597    -185.981     591.066
  H     1258.828    -185.386     584.707
  H     1260.559    -180.214     581.720
  H     1263.478    -179.686     584.690
  H     1262.115    -181.144     586.170
  H     1258.749    -182.036     585.489
  H     1260.348    -183.883     584.046
  H     1261.887    -184.169     585.835
  H     1259.442    -184.101     587.713
  H     1261.747    -184.766     588.631
  H     1262.284    -183.101     588.255
  P     1261.703    -186.760     585.362
  C     1262.656    -186.628     582.916
  O     1261.690    -186.207     583.863
  O     1260.872    -188.137     585.305
  O     1263.041    -186.886     586.009
  H     1259.888    -187.968     585.346
  H     1262.472    -186.144     581.980
  H     1262.591    -187.688     582.788
  H     1263.634    -186.370     583.265

 6  7  8  9  10  11  12  13  14  15  16  27  31  32  33  34  35 0
 6-311+G(2d,p)
 ****
 36  37 0
 6-311+G(2d,p)
 ****
 1  2  3  4  5  17  18  19  20  21  22  23  24  25 0
 3-21G
 ****
 26  28  29  30  38  39  40  41  42  43  44  45 0
 3-21G
 ****


