%nproc=1
%NoSave
%Mem=1900MB
#P OB98/GEN NMR

erre ene a

0 1
  C      -80.179     438.141     250.052
  O      -79.061     438.184     249.182
  P      -78.797     439.522     248.338
  C      -81.135     439.536     247.126
  O      -79.722     439.429     247.024
  C      -81.796     438.979     245.867
  O      -83.247     439.059     246.016
  C      -81.433     439.739     244.565
  O      -81.389     438.765     243.510
  C      -82.621     440.671     244.382
  O      -82.765     441.114     243.040
  C      -83.769     439.785     244.886
  N      -84.960     440.543     245.267
  C      -85.940     440.750     244.302
  O      -85.853     440.353     243.135
  N      -87.037     441.466     244.710
  C      -87.220     442.042     245.938
  O      -88.221     442.685     246.242
  C      -86.134     441.825     246.904
  C      -85.079     441.089     246.538
  O      -77.321     439.254     247.788
  O      -78.956     440.779     249.132
  H      -77.155     438.311     247.573
  H      -83.367     441.883     243.036
  H      -87.777     441.600     244.036
  H      -86.226     442.277     247.888
  H      -84.258     440.924     247.231
  H      -84.034     439.042     244.116
  H      -82.485     441.560     245.017
  H      -80.477     440.255     244.639
  H      -81.538     437.915     245.768
  H      -81.412     440.588     247.243
  H      -81.470     438.992     248.018
  P      -80.167     438.838     242.461
  C      -81.580     439.809     240.479
  O      -80.788     438.754     240.992
  O      -79.532     437.373     242.673
  O      -79.186     439.937     242.722
  H      -80.195     436.665     242.648
  H      -81.630     439.724     239.392
  H      -81.179     440.786     240.747
  H      -82.600     439.718     240.879
  H      -80.216     437.189     250.538
  H      -81.076     438.289     249.488
  H      -80.089     438.913     250.787

 3  4  5  6  7  8  9  10  11  12  13  24  28  29  30  31  32 0
 6-311+G(2d,p)
 ****
 33  34 0
 6-311+G(2d,p)
 ****
 1  2  14  15  16  17  18  19  20  21  22  23  25  26  27 0
 3-21G
 ****
 35  36  37  38  39  40  41  42  43  44  45 0
 3-21G
 ****


