%nproc=1
%NoSave
%Mem=1900MB
#P OB98/GEN NMR

erre ene a

0 1
  C      278.181    -401.072     509.820
  O      279.455    -400.676     509.332
  P      279.527    -399.385     508.388
  C      279.370    -400.730     506.152
  O      278.781    -399.761     507.013
  C      278.338    -401.194     505.117
  O      277.251    -401.888     505.771
  C      277.694    -400.039     504.354
  O      278.554    -399.557     503.320
  C      276.429    -400.709     503.826
  O      276.692    -401.440     502.611
  C      276.061    -401.654     504.980
  N      274.960    -401.157     505.795
  C      273.676    -401.589     505.423
  O      273.484    -402.326     504.463
  N      272.645    -401.102     506.189
  C      272.744    -400.206     507.214
  O      271.778    -399.771     507.815
  C      274.113    -399.767     507.538
  C      275.137    -400.251     506.824
  O      281.073    -399.301     507.979
  O      279.045    -398.120     509.026
  H      277.413    -402.067     502.820
  H      281.339    -398.358     507.906
  H      271.721    -401.425     505.948
  H      274.240    -399.061     508.354
  H      276.154    -399.921     507.031
  H      275.777    -402.645     504.584
  H      275.646    -399.975     503.582
  H      277.425    -399.237     505.035
  H      278.836    -401.896     504.424
  H      279.709    -401.584     506.746
  H      280.247    -400.285     505.659
  P      278.198    -398.138     502.684
  C      276.652    -399.415     501.006
  O      276.799    -398.361     501.915
  O      279.292    -398.037     501.522
  O      278.231    -397.023     503.680
  H      279.509    -398.907     501.151
  H      277.215    -400.311     501.318
  H      277.014    -399.107     500.013
  H      275.594    -399.684     500.931
  H      278.289    -401.943     510.432
  H      277.536    -401.293     508.995
  H      277.759    -400.278     510.400

 3  4  5  6  7  8  9  10  11  12  13  23  28  29  30  31  32 0
 6-311+G(2d,p)
 ****
 33  34 0
 6-311+G(2d,p)
 ****
 1  2  14  15  16  17  18  19  20  21  22  24  25  26 0
 3-21G
 ****
 27  35  36  37  38  39  40  41  42  43  44  45 0
 3-21G
 ****


