%nproc=1
%NoSave
%Mem=1900MB
#P OB98/GEN NMR

erre ene a

0 1
  C        5.934     534.799    -470.830
  O        7.196     534.154    -470.826
  P        7.622     533.333    -472.139
  C        8.092     530.761    -471.844
  O        7.153     531.821    -471.879
  C        8.278     530.271    -470.404
  O        6.993     529.986    -469.814
  C        9.084     528.979    -470.269
  O       10.473     529.216    -470.423
  C        8.661     528.513    -468.883
  O        9.395     529.224    -467.875
  C        7.175     528.927    -468.847
  N        6.265     527.813    -469.108
  C        6.215     526.816    -468.135
  O        6.896     526.843    -467.108
  N        5.374     525.765    -468.397
  C        4.641     525.591    -469.535
  O        3.932     524.605    -469.736
  C        4.752     526.659    -470.537
  C        5.546     527.701    -470.284
  O        9.208     533.303    -471.962
  O        7.135     533.958    -473.404
  H        9.472     533.360    -471.026
  H       10.343     529.047    -468.045
  H        5.306     525.039    -467.696
  H        4.193     526.546    -471.460
  H        5.649     528.492    -471.017
  H        6.925     529.354    -467.872
  H        8.838     527.443    -468.725
  H        8.747     528.254    -471.025
  H        8.748     531.080    -469.827
  H        9.048     531.116    -472.235
  H        7.730     529.947    -472.482
  P       11.406     527.906    -470.581
  C       12.968     527.622    -468.502
  O       11.711     527.391    -469.093
  O       12.785     528.565    -471.060
  O       10.849     526.881    -471.517
  H       13.003     529.380    -470.582
  H       12.869     527.532    -467.418
  H       13.339     528.626    -468.742
  H       13.685     526.875    -468.856
  H        5.788     535.302    -469.897
  H        5.162     534.071    -470.968
  H        5.900     535.511    -471.628

 3  4  5  6  7  8  9  10  11  12  13  24  28  29  30  31  32 0
 6-311+G(2d,p)
 ****
 33  34 0
 6-311+G(2d,p)
 ****
 1  2  14  15  16  17  18  19  20  21  22  23  25  26  27 0
 3-21G
 ****
 35  36  37  38  39  40  41  42  43  44  45 0
 3-21G
 ****


