%nproc=1
%NoSave
%Mem=1900MB
#P OB98/GEN NMR

erre ene a

0 1
  C      129.611     245.965    -157.914
  O      130.581     244.983    -158.207
  P      131.746     244.626    -157.165
  C      130.836     242.251    -156.746
  O      131.146     243.513    -156.168
  C      132.018     241.283    -156.579
  O      132.434     241.291    -155.178
  C      131.662     239.829    -156.960
  O      132.552     239.231    -157.906
  C      131.580     239.137    -155.610
  O      131.728     237.733    -155.672
  C      132.629     239.913    -154.801
  N      132.494     239.703    -153.361
  C      133.401     238.837    -152.756
  O      134.303     238.254    -153.348
  N      133.205     238.599    -151.422
  C      132.151     239.038    -150.675
  O      131.986     238.704    -149.508
  C      131.201     239.916    -151.381
  C      131.422     240.227    -152.662
  O      132.369     245.793    -156.480
  O      132.770     243.765    -158.048
  H      132.630     237.539    -155.992
  H      132.392     242.954    -158.436
  H      133.855     237.975    -150.971
  H      130.348     240.271    -150.815
  H      130.737     240.873    -153.207
  H      133.643     239.632    -155.095
  H      130.582     239.337    -155.194
  H      130.683     239.783    -157.455
  H      132.845     241.659    -157.192
  H      130.635     242.389    -157.814
  H      129.925     241.844    -156.290
  P      132.209     237.964    -158.820
  C      131.291     239.442    -160.757
  O      131.052     238.386    -159.846
  O      131.960     236.691    -158.077
  O      133.497     237.821    -159.763
  H      133.616     236.885    -160.013
  H      130.337     239.923    -160.993
  H      131.714     239.030    -161.680
  H      131.973     240.188    -160.338
  H      128.930     246.049    -158.735
  H      130.094     246.906    -157.753
  H      129.074     245.684    -157.032

 3  4  5  6  7  8  9  10  11  12  13  23  28  29  30  31  32 0
 6-311+G(2d,p)
 ****
 33  34 0
 6-311+G(2d,p)
 ****
 1  2  14  15  16  17  18  19  20  21  22  24  25  26  27 0
 3-21G
 ****
 35  36  37  38  39  40  41  42  43  44  45 0
 3-21G
 ****


