%nproc=1
%NoSave
%Mem=1900MB
#P OB98/GEN NMR

erre ene a

0 1
  C     -737.303    -245.436    -419.794
  O     -738.108    -245.672    -420.935
  P     -738.752    -244.450    -421.748
  C     -740.252    -243.840    -419.745
  O     -740.205    -244.220    -421.108
  C     -740.960    -242.488    -419.577
  O     -740.293    -241.469    -420.352
  C     -742.413    -242.482    -420.048
  O     -743.245    -243.110    -419.102
  C     -742.653    -240.995    -420.225
  O     -742.985    -240.386    -418.974
  C     -741.291    -240.487    -420.735
  N     -741.277    -240.260    -422.175
  C     -741.958    -239.114    -422.611
  O     -742.552    -238.394    -421.807
  N     -742.010    -238.853    -423.958
  C     -741.440    -239.677    -424.805
  N     -741.526    -239.358    -426.134
  C     -740.743    -240.907    -424.383
  C     -740.707    -241.130    -423.072
  O     -738.720    -244.592    -423.240
  O     -737.927    -243.187    -421.210
  H     -743.378    -239.488    -419.199
  H     -737.015    -243.165    -421.586
  H     -740.295    -241.560    -425.116
  H     -740.210    -242.012    -422.671
  H     -741.018    -239.558    -420.238
  H     -743.487    -240.791    -420.919
  H     -742.474    -242.989    -421.027
  H     -740.910    -242.208    -418.500
  H     -742.055    -238.522    -426.364
  H     -739.217    -243.751    -419.381
  H     -741.157    -239.933    -426.852
  H     -740.751    -244.609    -419.165
  P     -743.822    -244.578    -419.404
  C     -745.621    -243.668    -421.031
  O     -745.371    -244.417    -419.824
  O     -743.574    -245.607    -418.362
  O     -743.115    -244.980    -420.788
  H     -742.810    -245.908    -420.730
  H     -746.627    -243.910    -421.367
  H     -744.895    -243.920    -421.802
  H     -745.563    -242.609    -420.789
  H     -736.969    -246.370    -419.394
  H     -737.876    -244.916    -419.055
  H     -736.456    -244.844    -420.071

 3  4  5  6  7  8  9  10  11  12  13  23  27  28  29  30  32 0
 6-311+G(2d,p)
 ****
 34  35 0
 6-311+G(2d,p)
 ****
 1  2  14  15  16  17  18  19  20  21  22  24  25  26 0
 3-21G
 ****
 31  33  36  37  38  39  40  41  42  43  44  45  46 0
 3-21G
 ****


