%nproc=1
%NoSave
%Mem=1900MB
#P OB98/GEN NMR

erre ene a

0 1
  C      -74.766     172.982      34.010
  O      -73.484     172.353      33.995
  P      -72.488     172.646      32.772
  C      -70.331     172.529      34.167
  O      -71.067     171.966      33.090
  C      -69.339     171.533      34.782
  O      -70.035     170.503      35.531
  C      -68.443     170.821      33.757
  O      -67.162     170.646      34.372
  C      -69.143     169.490      33.582
  O      -68.301     168.502      33.012
  C      -69.597     169.227      35.022
  N      -70.647     168.224      35.103
  C      -70.256     166.886      35.072
  O      -69.077     166.592      34.879
  N      -71.219     165.918      35.233
  C      -72.470     166.257      35.264
  N      -73.390     165.271      35.444
  C      -72.930     167.651      35.116
  C      -71.973     168.575      35.065
  O      -72.419     174.068      32.329
  O      -73.071     171.709      31.607
  H      -68.855     167.840      32.546
  H      -72.943     172.159      30.749
  H      -73.986     167.878      35.066
  H      -72.209     169.625      34.963
  H      -68.755     168.900      35.644
  H      -70.011     169.614      32.924
  H      -68.317     171.384      32.826
  H      -68.710     172.084      35.496
  H      -73.061     164.317      35.519
  H      -71.029     172.863      34.940
  H      -74.381     165.462      35.532
  H      -69.819     173.432      33.815
  P      -65.974     171.662      34.004
  C      -65.076     171.566      36.441
  O      -64.793     171.447      35.065
  O      -66.591     173.068      34.479
  O      -65.591     171.733      32.562
  H      -66.168     173.785      33.972
  H      -64.256     171.121      37.009
  H      -66.001     171.043      36.705
  H      -65.159     172.623      36.713
  H      -75.300     172.682      34.887
  H      -75.317     172.690      33.140
  H      -74.642     174.045      34.014

 3  4  5  6  7  8  9  10  11  12  13  23  27  28  29  30  32 0
 6-311+G(2d,p)
 ****
 34  35 0
 6-311+G(2d,p)
 ****
 1  2  14  15  16  17  18  19  20  21  22  24  25  26 0
 3-21G
 ****
 31  33  36  37  38  39  40  41  42  43  44  45  46 0
 3-21G
 ****


