%nproc=1
%NoSave
%Mem=1900MB
#P OB98/GEN NMR

erre ene a

0 1
  C      498.546     172.171     438.941
  O      498.844     171.220     437.925
  P      497.897     169.947     437.662
  C      499.298     168.486     439.280
  O      498.028     169.044     438.981
  C      499.128     167.214     440.114
  O      500.458     166.695     440.414
  C      498.404     167.425     441.452
  O      497.642     166.239     441.700
  C      499.544     167.554     442.447
  O      499.141     167.261     443.779
  C      500.552     166.563     441.853
  N      501.926     166.815     442.305
  C      502.536     165.830     443.076
  O      501.947     164.789     443.374
  N      503.840     166.032     443.493
  C      504.430     167.164     443.243
  N      505.724     167.290     443.624
  C      503.767     168.273     442.522
  C      502.539     168.021     442.077
  O      498.157     169.234     436.378
  O      496.414     170.525     437.804
  H      499.853     167.548     444.383
  H      496.073     170.928     436.956
  H      504.288     169.206     442.362
  H      501.984     168.777     441.517
  H      500.267     165.527     442.102
  H      499.936     168.581     442.420
  H      497.738     168.289     441.435
  H      498.617     166.462     439.511
  H      506.191     166.455     443.940
  H      499.871     169.218     439.854
  H      506.333     167.978     443.183
  H      499.832     168.280     438.345
  P      496.128     166.404     442.243
  C      496.289     164.595     444.102
  O      496.103     165.963     443.790
  O      495.396     165.171     441.524
  O      495.441     167.680     441.893
  H      494.451     165.379     441.438
  H      496.246     164.483     445.194
  H      497.275     164.247     443.758
  H      495.492     163.983     443.660
  H      499.297     172.933     438.948
  H      498.525     171.682     439.892
  H      497.591     172.613     438.747

 3  4  5  6  7  8  9  10  11  12  13  23  27  28  29  30  32 0
 6-311+G(2d,p)
 ****
 34  35 0
 6-311+G(2d,p)
 ****
 1  2  14  15  16  17  18  19  20  21  22  24  25  26 0
 3-21G
 ****
 31  33  36  37  38  39  40  41  42  43  44  45  46 0
 3-21G
 ****


