%nproc=1
%NoSave
%Mem=1900MB
#P OB98/GEN NMR

erre ene a

0 1
  C      226.643    -292.423      24.278
  O      225.968    -291.308      23.730
  P      224.574    -290.816      24.346
  C      225.316    -288.391      23.869
  O      224.304    -289.378      23.684
  C      225.041    -287.161      23.002
  O      223.691    -286.698      23.194
  C      225.937    -285.970      23.316
  O      227.229    -286.154      22.758
  C      225.136    -284.831      22.698
  O      225.374    -284.732      21.284
  C      223.683    -285.270      22.978
  N      223.094    -284.554      24.104
  C      222.196    -283.530      23.779
  O      221.967    -283.258      22.599
  N      221.617    -282.811      24.794
  C      221.927    -283.077      26.028
  N      221.333    -282.322      26.989
  C      222.892    -284.125      26.414
  C      223.435    -284.818      25.410
  O      224.478    -290.864      25.833
  O      223.502    -291.751      23.608
  H      226.270    -284.358      21.184
  H      223.519    -292.671      23.972
  H      223.129    -284.302      27.451
  H      224.156    -285.601      25.603
  H      223.053    -285.095      22.095
  H      225.398    -283.860      23.135
  H      225.998    -285.827      24.402
  H      225.156    -287.453      21.951
  H      220.700    -281.593      26.681
  H      226.275    -288.825      23.584
  H      221.527    -282.423      27.977
  H      225.364    -288.116      24.927
  P      228.370    -285.064      23.018
  C      230.244    -286.777      22.658
  O      229.690    -285.544      22.247
  O      228.573    -284.676      24.446
  O      227.887    -283.803      22.152
  H      228.001    -282.994      22.683
  H      230.905    -287.148      21.869
  H      229.462    -287.521      22.844
  H      230.828    -286.631      23.566
  H      227.549    -292.594      23.734
  H      226.017    -293.288      24.209
  H      226.874    -292.231      25.305

 3  4  5  6  7  8  9  10  11  12  13  23  27  28  29  30  32 0
 6-311+G(2d,p)
 ****
 34  35 0
 6-311+G(2d,p)
 ****
 1  2  14  15  16  17  18  19  20  21  22  24  25  26 0
 3-21G
 ****
 31  33  36  37  38  39  40  41  42  43  44  45  46 0
 3-21G
 ****


