%nproc=1
%NoSave
%Mem=1900MB
#P OB98/GEN NMR

erre ene a

0 1
  C      -78.198     -40.774    -217.815
  O      -78.901     -40.453    -218.998
  H      -77.178     -41.076    -218.066
  H      -78.155     -39.886    -217.179
  H      -78.702     -41.575    -217.268
  P      -79.347     -41.671    -219.941
  C      -81.620     -40.914    -220.942
  O      -80.955     -41.675    -219.944
  C      -82.107     -39.587    -220.365
  O      -80.950     -38.823    -219.920
  C      -82.890     -38.716    -221.360
  O      -83.963     -38.080    -220.659
  C      -81.878     -37.663    -221.772
  O      -82.488     -36.455    -222.214
  C      -81.070     -37.507    -220.488
  N      -77.793     -33.908    -219.022
  C      -78.880     -34.436    -218.421
  N      -79.670     -35.437    -218.860
  C      -79.201     -35.942    -220.014
  C      -78.103     -35.513    -220.741
  C      -77.389     -34.427    -220.205
  N      -76.321     -33.836    -220.841
  N      -77.978     -36.249    -221.904
  C      -78.997     -37.085    -221.890
  N      -79.764     -36.937    -220.769
  O      -78.971     -42.950    -219.051
  O      -78.702     -41.716    -221.283
  H      -82.835     -36.589    -223.118
  H      -78.045     -43.203    -219.218
  H      -79.158     -33.992    -217.469
  H      -79.240     -37.791    -222.672
  H      -81.563     -36.858    -219.754
  H      -81.254     -38.052    -222.586
  H      -83.288     -39.272    -222.218
  H      -82.713     -39.796    -219.476
  H      -82.483     -41.482    -221.306
  H      -75.940     -32.997    -220.434
  H      -76.079     -34.141    -221.773
  H      -80.936     -40.738    -221.778
  P      -85.443     -38.647    -220.903
  C      -86.621     -38.296    -218.607
  O      -86.009     -39.207    -219.513
  O      -85.191     -39.974    -221.761
  O      -86.346     -37.693    -221.616
  H      -85.927     -40.120    -222.381
  H      -86.943     -38.824    -217.734
  H      -87.465     -37.837    -219.078
  H      -85.915     -37.542    -218.328

 6  7  8  9  10  11  12  13  14  15  25  28  32  33  34  35 0
 6-311+G(2d,p)
 ****
 36  39  40 0
 6-311+G(2d,p)
 ****
 1  2  3  4  5  16  17  18  19  20  21  22  23  24 0
 3-21G
 ****
 26  27  29  30  31  37  38  41  42  43  44  45  46  47 0
 3-21G
 ****
 48 0
 3-21G
 ****


