%nproc=1
%NoSave
%Mem=1900MB
#P OB98/GEN NMR

erre ene a

0 1
  C      159.593     125.896     273.362
  O      160.380     124.721     273.407
  H      159.794     126.414     272.420
  H      159.849     126.559     274.194
  H      158.531     125.636     273.403
  P      160.256     123.826     274.735
  C      158.252     122.406     273.958
  O      159.652     122.430     274.216
  C      157.934     121.428     272.820
  O      158.313     122.046     271.566
  C      158.687     120.103     272.934
  O      157.831     119.039     272.513
  C      159.832     120.253     271.948
  O      160.308     118.998     271.465
  C      159.203     121.146     270.878
  N      161.423     121.722     266.318
  C      160.362     120.995     266.720
  N      159.825     120.912     267.959
  C      160.471     121.721     268.812
  C      161.574     122.522     268.551
  C      162.058     122.497     267.232
  N      163.155     123.216     266.820
  N      161.983     123.175     269.700
  C      161.134     122.784     270.637
  N      160.214     121.897     270.150
  O      159.533     124.453     275.875
  O      161.789     123.452     275.013
  H      161.145     119.158     270.981
  H      162.251     123.196     274.196
  H      159.882     120.395     265.951
  H      161.151     123.106     271.674
  H      158.624     120.575     270.141
  H      160.674     120.767     272.434
  H      159.046     119.907     273.945
  H      156.849     121.272     272.785
  H      157.902     123.409     273.687
  H      163.431     123.158     265.850
  H      163.634     123.815     267.480
  H      157.743     122.095     274.876
  P      157.473     117.882     273.564
  C      154.888     117.995     273.545
  O      156.046     117.255     273.165
  O      157.639     118.235     275.005
  O      158.485     116.705     273.143
  H      158.793     116.256     273.954
  H      154.010     117.474     273.223
  H      154.917     118.962     273.088
  H      154.868     118.104     274.609

 6  7  8  9  10  11  12  13  14  15  25  28  32  33  34  35 0
 6-311+G(2d,p)
 ****
 36  39  40 0
 6-311+G(2d,p)
 ****
 1  2  3  4  5  16  17  18  19  20  21  22  23  24 0
 3-21G
 ****
 26  27  29  30  31  37  38  41  42  43  44  45  46  47 0
 3-21G
 ****
 48 0
 3-21G
 ****


