%nproc=1
%NoSave
%Mem=1900MB
#P OB98/GEN NMR

erre ene a

0 1
  C      -73.832      48.871      18.929
  O      -72.564      49.124      19.547
  P      -71.374      49.671      18.627
  C      -71.784      52.235      18.768
  O      -70.974      51.133      19.147
  C      -71.069      53.553      19.079
  O      -71.665      54.663      18.374
  C      -71.100      53.931      20.554
  O      -70.079      53.269      21.289
  C      -70.800      55.420      20.480
  O      -69.382      55.626      20.315
  C      -71.554      55.840      19.213
  N      -74.128      59.482      21.600
  C      -72.767      59.259      21.521
  N      -71.975      60.141      22.168
  N      -72.231      58.261      20.868
  C      -73.143      57.472      20.255
  C      -74.514      57.588      20.260
  C      -75.096      58.686      20.999
  O      -76.293      58.925      21.115
  N      -75.102      56.590      19.529
  C      -74.091      55.882      19.065
  N      -72.880      56.366      19.492
  O      -72.111      49.980      17.239
  O      -70.243      48.712      18.449
  H      -69.138      55.215      19.464
  H      -71.478      49.897      16.502
  H      -74.487      60.263      22.121
  H      -74.183      55.017      18.422
  H      -71.017      56.605      18.641
  H      -71.092      55.949      21.392
  H      -72.318      60.959      22.648
  H      -72.094      53.767      20.986
  H      -70.973      60.013      22.094
  H      -70.024      53.457      18.755
  H      -72.743      52.202      19.292
  H      -72.024      52.150      17.705
  P      -70.387      52.882      22.815
  C      -71.717      50.654      22.803
  O      -70.454      51.284      22.862
  O      -71.909      53.342      22.997
  O      -69.491      53.530      23.814
  H      -72.065      53.623      23.918
  H      -71.565      49.579      22.683
  H      -72.297      51.023      21.954
  H      -72.267      50.829      23.733
  H      -74.522      48.512      19.664
  H      -73.714      48.135      18.161
  H      -74.207      49.777      18.500

 3  4  5  6  7  8  9  10  11  12  23  26  30  31 0
 6-311+G(2d,p)
 ****
 33  35  36  37  38 0
 6-311+G(2d,p)
 ****
 1  2  13  14  15  16  17  18  19  20  21  22  24  25 0
 3-21G
 ****
 27  28  29  32  34  39  40  41  42  43  44  45  46  47  48  49 0
 3-21G
 ****


