%nproc=1
%NoSave
%Mem=1900MB
#P OB98/GEN NMR

erre ene a

0 1
  C      480.789    -500.823     957.576
  O      480.224    -499.544     957.796
  H      480.427    -501.502     958.349
  H      481.880    -500.767     957.638
  H      480.490    -501.213     956.597
  P      480.507    -498.376     956.739
  C      478.022    -498.194     956.103
  O      479.339    -498.454     955.637
  C      477.062    -498.030     954.922
  O      477.408    -496.810     954.206
  C      477.104    -499.195     953.929
  O      475.775    -499.425     953.459
  C      477.962    -498.654     952.794
  O      477.657    -499.280     951.544
  C      477.619    -497.169     952.824
  N      478.733    -493.857     949.170
  C      477.517    -494.419     949.520
  N      476.443    -494.063     948.785
  N      477.372    -495.254     950.527
  C      478.531    -495.507     951.186
  C      479.791    -495.018     950.930
  C      479.941    -494.107     949.816
  O      480.990    -493.593     949.445
  N      480.714    -495.532     951.807
  C      480.016    -496.335     952.588
  N      478.690    -496.361     952.247
  O      481.891    -498.348     956.172
  O      480.165    -497.034     957.542
  H      478.298    -498.943     950.891
  H      480.982    -496.609     957.863
  H      478.784    -493.232     948.388
  H      480.419    -496.916     953.412
  H      476.697    -496.934     952.263
  H      479.021    -498.822     953.020
  H      476.484    -493.415     948.019
  H      477.523    -500.106     954.348
  H      475.543    -494.450     949.046
  H      476.048    -497.884     955.322
  H      478.040    -497.272     956.695
  H      477.692    -499.011     956.745
  P      474.958    -500.680     954.069
  C      473.102    -499.234     955.118
  O      474.153    -500.158     955.356
  O      475.742    -501.934     954.255
  O      473.779    -500.876     952.990
  H      473.537    -501.826     952.979
  H      472.647    -498.964     956.048
  H      472.370    -499.683     954.480
  H      473.497    -498.358     954.647

 6  7  8  9  10  11  12  13  14  15  26  29  33  34 0
 6-311+G(2d,p)
 ****
 36  38  39  40  41 0
 6-311+G(2d,p)
 ****
 1  2  3  4  5  16  17  18  19  20  21  22  23  24  25 0
 3-21G
 ****
 27  28  30  31  32  35  37  42  43  44  45  46  47 0
 3-21G
 ****
 48  49 0
 3-21G
 ****


