%nproc=1
%NoSave
%Mem=1900MB
#P OB98/GEN NMR

erre ene a

0 1
  C      -68.569      55.583     -65.411
  O      -68.822      56.956     -65.170
  P      -68.037      57.646     -63.951
  C      -68.167      57.468     -61.356
  O      -68.796      57.215     -62.607
  C      -69.151      57.227     -60.215
  O      -70.144      58.272     -60.187
  C      -69.935      55.926     -60.317
  O      -69.131      54.814     -59.960
  C      -71.085      56.216     -59.360
  O      -70.652      56.039     -58.001
  C      -71.362      57.704     -59.636
  N      -76.376      58.619     -60.108
  C      -75.593      58.429     -59.023
  N      -74.271      58.168     -58.979
  C      -73.755      58.118     -60.218
  C      -74.432      58.270     -61.415
  C      -75.808      58.536     -61.333
  N      -76.604      58.725     -62.442
  N      -73.574      58.129     -62.485
  C      -72.396      57.906     -61.942
  N      -72.450      57.905     -60.575
  O      -68.409      59.192     -64.107
  O      -66.557      57.422     -63.948
  H      -70.483      55.084     -57.872
  H      -67.663      59.760     -63.832
  H      -76.096      58.496     -58.062
  H      -71.479      57.747     -62.493
  H      -71.604      58.263     -58.725
  H      -71.951      55.565     -59.517
  H      -70.321      55.791     -61.335
  H      -68.590      57.261     -59.271
  H      -67.831      58.509     -61.320
  H      -77.601      58.762     -62.299
  H      -76.208      58.522     -63.350
  H      -67.291      56.819     -61.262
  P      -69.504      53.396     -60.612
  C      -71.684      52.041     -60.712
  O      -71.002      53.121     -60.100
  O      -68.640      52.391     -59.721
  O      -69.294      53.308     -62.084
  H      -68.748      52.562     -58.769
  H      -72.662      51.932     -60.237
  H      -71.119      51.113     -60.580
  H      -71.828      52.243     -61.777
  H      -69.153      55.254     -66.245
  H      -68.833      55.014     -64.544
  H      -67.530      55.444     -65.626

 3  4  5  6  7  8  9  10  11  12  22  25  29  30  31  32 0
 6-311+G(2d,p)
 ****
 33  36  37 0
 6-311+G(2d,p)
 ****
 1  2  13  14  15  16  17  18  19  20  21  23  24  26 0
 3-21G
 ****
 27  28  34  35  38  39  40  41  42  43  44  45  46  47  48 0
 3-21G
 ****


