%nproc=1
%NoSave
%Mem=1900MB
#P OB98/GEN NMR

erre ene a

0 1
  C     -430.705     263.141     227.118
  O     -430.774     261.801     226.651
  P     -431.468     261.557     225.225
  C     -429.289     262.316     224.017
  O     -430.696     262.504     224.173
  C     -428.963     261.701     222.651
  O     -429.619     262.470     221.617
  C     -427.462     261.654     222.331
  O     -427.200     260.442     221.626
  C     -427.266     262.829     221.393
  O     -426.122     262.652     220.556
  C     -428.614     262.847     220.650
  N     -428.903     264.149     220.053
  C     -427.987     264.637     219.114
  O     -426.948     264.012     218.885
  N     -428.235     265.848     218.501
  C     -429.262     266.545     218.876
  N     -429.475     267.729     218.233
  C     -430.184     266.125     219.948
  C     -429.964     264.924     220.470
  O     -432.889     262.271     225.384
  O     -431.598     260.120     224.831
  H     -426.355     262.008     219.850
  H     -433.571     261.815     224.861
  H     -431.006     266.769     220.244
  H     -430.606     264.516     221.248
  H     -428.626     262.089     219.849
  H     -427.137     263.753     221.966
  H     -426.838     261.705     223.223
  H     -429.384     260.684     222.623
  H     -428.815     268.006     217.514
  H     -428.932     261.632     224.796
  H     -430.245     268.349     218.458
  H     -428.780     263.274     224.141
  P     -425.762     259.761     221.810
  C     -426.871     257.626     222.708
  O     -425.967     258.674     222.982
  O     -424.957     260.921     222.585
  O     -425.023     259.309     220.601
  H     -424.029     260.649     222.711
  H     -426.815     256.897     223.529
  H     -426.612     257.122     221.780
  H     -427.898     258.006     222.664
  H     -430.222     263.162     228.073
  H     -431.694     263.538     227.210
  H     -430.146     263.733     226.423

 3  4  5  6  7  8  9  10  11  12  13  21  23  27  28  29  30  32 0
 6-311+G(2d,p)
 ****
 34  35 0
 6-311+G(2d,p)
 ****
 1  2  14  15  16  17  18  19  20  22  24  25  26 0
 3-21G
 ****
 31  33  36  37  38  39  40  41  42  43  44  45  46 0
 3-21G
 ****


