%nproc=1
%NoSave
%Mem=1900MB
#P OB98/GEN NMR

erre ene a

0 1
  C      368.589     113.689     -22.100
  O      367.366     112.946     -22.098
  P      367.162     111.850     -23.254
  C      366.102     113.478     -24.974
  O      367.173     112.591     -24.678
  C      366.276     114.115     -26.364
  O      365.041     114.772     -26.783
  C      367.379     115.174     -26.419
  O      367.932     115.178     -27.738
  C      366.616     116.466     -26.205
  O      367.363     117.603     -26.640
  C      365.346     116.168     -27.003
  N      362.980     120.545     -27.861
  C      364.126     120.021     -28.436
  N      364.708     120.763     -29.407
  N      364.656     118.876     -28.091
  C      363.941     118.228     -27.131
  C      362.807     118.647     -26.482
  C      362.246     119.922     -26.854
  O      361.243     120.441     -26.374
  N      362.393     117.723     -25.550
  C      363.288     116.752     -25.631
  N      364.231     117.001     -26.600
  O      365.632     111.413     -23.069
  O      368.075     110.672     -23.135
  H      367.502     117.506     -27.608
  H      365.586     110.516     -22.696
  H      362.625     121.435     -28.160
  H      363.304     115.866     -25.024
  H      365.484     116.320     -28.080
  H      366.386     116.592     -25.139
  H      364.323     121.628     -29.753
  H      368.189     115.031     -25.690
  H      365.522     120.382     -29.872
  H      366.483     113.322     -27.087
  H      366.043     114.264     -24.218
  H      365.158     112.928     -24.902
  P      369.490     114.820     -27.880
  C      370.351     117.241     -28.282
  O      370.292     116.124     -27.406
  O      369.725     114.786     -29.464
  O      369.895     113.544     -27.221
  H      370.488     114.216     -29.676
  H      369.655     118.009     -27.927
  H      370.097     116.965     -29.312
  H      371.367     117.642     -28.267
  H      368.589     114.378     -21.281
  H      368.677     114.229     -23.020
  H      369.415     113.016     -22.001

 3  4  5  6  7  8  9  10  11  12  23  26  30  31 0
 6-311+G(2d,p)
 ****
 33  35  36  37  38 0
 6-311+G(2d,p)
 ****
 1  2  13  14  15  16  17  18  19  20  21  22  24  25 0
 3-21G
 ****
 27  28  29  32  34  39  40  41  42  43  44  45  46  47  48  49 0
 3-21G
 ****


