%nproc=1
%NoSave
%Mem=1900MB
#P OB98/GEN NMR

erre ene a

0 1
  C     -158.938      55.141    -359.128
  O     -159.557      55.901    -358.109
  H     -159.713      54.728    -359.779
  H     -158.382      54.315    -358.679
  H     -158.267      55.762    -359.727
  P     -158.629      56.913    -357.282
  C     -159.634      59.210    -357.955
  O     -159.532      58.202    -356.958
  C     -161.082      59.688    -358.082
  O     -161.838      58.683    -358.823
  C     -161.791      59.911    -356.737
  O     -162.665      61.043    -356.857
  C     -162.646      58.664    -356.598
  O     -163.759      58.863    -355.734
  C     -163.027      58.417    -358.055
  N     -166.849      55.350    -356.967
  C     -166.717      56.714    -356.802
  N     -167.736      57.362    -356.198
  N     -165.670      57.393    -357.191
  C     -164.731      56.626    -357.801
  C     -164.739      55.271    -358.021
  C     -165.898      54.528    -357.568
  O     -166.062      53.316    -357.665
  N     -163.570      54.862    -358.611
  C     -162.851      55.967    -358.730
  N     -163.512      57.064    -358.250
  O     -157.605      57.440    -358.398
  O     -157.921      56.320    -356.111
  H     -164.345      58.082    -355.804
  H     -156.788      56.908    -358.370
  H     -167.670      54.874    -356.633
  H     -161.849      56.022    -359.133
  H     -163.819      59.093    -358.402
  H     -162.044      57.839    -356.201
  H     -168.587      56.914    -355.896
  H     -161.110      60.058    -355.894
  H     -167.670      58.370    -356.107
  H     -161.095      60.606    -358.685
  H     -159.308      58.800    -358.917
  H     -158.979      60.047    -357.690
  P     -163.068      61.829    -355.520
  C     -162.237      64.147    -356.363
  O     -163.327      63.369    -355.891
  O     -161.694      61.876    -354.701
  O     -164.152      61.168    -354.734
  H     -161.876      61.815    -353.743
  H     -162.571      65.143    -356.564
  H     -161.851      63.712    -357.261
  H     -161.468      64.172    -355.619

 6  7  8  9  10  11  12  13  14  15  26  29  33  34 0
 6-311+G(2d,p)
 ****
 36  38  39  40  41 0
 6-311+G(2d,p)
 ****
 1  2  3  4  5  16  17  18  19  20  21  22  23  24  25 0
 3-21G
 ****
 27  28  30  31  32  35  37  42  43  44  45  46  47 0
 3-21G
 ****
 48  49 0
 3-21G
 ****


