%nproc=1
%NoSave
%Mem=1900MB
#P OB98/GEN NMR

erre ene a

0 1
  C      197.844     148.226    -239.952
  O      196.504     148.090    -240.383
  H      197.981     149.230    -239.541
  H      198.523     148.099    -240.800
  H      198.073     147.491    -239.175
  P      196.044     146.626    -240.858
  C      193.768     145.431    -240.330
  O      194.447     146.610    -240.723
  C      192.400     145.771    -239.732
  O      192.596     146.305    -238.398
  C      191.617     146.808    -240.540
  O      190.227     146.483    -240.466
  C      191.868     148.102    -239.785
  O      190.856     149.073    -240.030
  C      191.952     147.594    -238.338
  N      192.673     148.517    -237.463
  C      192.062     149.749    -237.209
  O      190.977     150.021    -237.722
  N      192.712     150.660    -236.415
  C      193.900     150.393    -235.968
  N      194.500     151.349    -235.209
  C      194.601     149.126    -236.248
  C      193.934     148.238    -236.986
  O      196.540     145.716    -239.638
  O      196.576     146.215    -242.190
  H      191.063     149.879    -239.506
  H      196.338     146.095    -238.767
  H      195.595     148.953    -235.861
  H      194.369     147.278    -237.233
  H      190.946     147.445    -237.925
  H      192.829     148.535    -240.091
  H      191.931     146.856    -241.585
  H      191.827     144.843    -239.622
  H      193.994     152.212    -235.061
  H      194.358     144.879    -239.592
  H      195.443     151.273    -234.855
  H      193.648     144.797    -241.214
  P      189.551     145.639    -241.647
  C      187.357     144.297    -241.932
  O      188.001     145.406    -241.313
  O      190.298     144.424    -242.085
  O      189.482     146.709    -242.848
  H      189.719     146.245    -243.674
  H      186.333     144.261    -241.623
  H      187.849     143.392    -241.643
  H      187.405     144.405    -242.995

 6  7  8  9  10  11  12  13  14  15  16  26  30  31  32  33  35 0
 6-311+G(2d,p)
 ****
 37  38 0
 6-311+G(2d,p)
 ****
 1  2  3  4  5  17  18  19  20  21  22  23  24  25 0
 3-21G
 ****
 27  28  29  34  36  39  40  41  42  43  44  45  46 0
 3-21G
 ****


