%nproc=1
%NoSave
%Mem=1900MB
#P OB98/GEN NMR

erre ene a

0 1
  C       70.873      69.324     -32.558
  O       70.495      68.194     -33.323
  P       70.415      66.779     -32.566
  C       72.997      66.583     -32.767
  O       71.860      66.529     -31.914
  C       73.974      65.446     -32.467
  O       74.783      65.812     -31.322
  C       73.299      64.106     -32.161
  O       74.105      63.069     -32.724
  C       73.364      64.014     -30.646
  O       73.307      62.662     -30.195
  C       74.690      64.737     -30.359
  N       74.757      65.241     -28.990
  C       75.457      64.459     -28.064
  O       75.911      63.365     -28.399
  N       75.578      64.915     -26.772
  C       74.960      65.998     -26.413
  N       75.115      66.406     -25.122
  C       74.110      66.784     -27.329
  C       74.073      66.367     -28.593
  O       70.368      65.728     -33.772
  O       69.250      66.630     -31.641
  H       74.035      62.166     -30.628
  H       69.841      64.941     -33.531
  H       73.589      67.660     -26.968
  H       73.493      66.896     -29.339
  H       75.542      64.065     -30.526
  H       72.523      64.563     -30.203
  H       72.282      64.041     -32.561
  H       74.654      65.341     -33.324
  H       75.690      65.842     -24.511
  H       73.519      67.533     -32.606
  H       74.672      67.238     -24.750
  H       72.672      66.549     -33.813
  P       73.361      61.896     -33.524
  C       74.161      60.047     -31.930
  O       73.049      60.772     -32.423
  O       74.581      61.230     -34.326
  O       72.248      62.266     -34.448
  H       74.245      60.528     -34.913
  H       73.831      59.421     -31.098
  H       74.936      60.729     -31.571
  H       74.563      59.403     -32.716
  H       70.885      70.191     -33.185
  H       71.849      69.167     -32.148
  H       70.171      69.468     -31.763

 3  4  5  6  7  8  9  10  11  12  13  21  23  27  28  29  30  32 0
 6-311+G(2d,p)
 ****
 34  35 0
 6-311+G(2d,p)
 ****
 1  2  14  15  16  17  18  19  20  22  24  25  26 0
 3-21G
 ****
 31  33  36  37  38  39  40  41  42  43  44  45  46 0
 3-21G
 ****


