%nproc=1
%NoSave
%Mem=1900MB
#P OB98/GEN NMR

erre ene a

0 1
  C      -79.127    -172.222     -45.872
  O      -78.775    -173.573     -45.567
  P      -77.989    -174.376     -46.712
  C      -75.814    -174.863     -45.386
  O      -76.416    -174.172     -46.469
  C      -75.421    -173.889     -44.273
  O      -76.563    -173.231     -43.693
  C      -74.693    -174.557     -43.117
  O      -73.332    -174.766     -43.454
  C      -74.882    -173.538     -42.000
  O      -73.892    -172.492     -42.071
  C      -76.280    -172.973     -42.294
  N      -78.216    -173.247     -37.618
  C      -77.018    -172.712     -38.050
  N      -76.238    -172.146     -37.106
  N      -76.626    -172.726     -39.297
  C      -77.507    -173.323     -40.133
  C      -78.734    -173.864     -39.828
  C      -79.157    -173.844     -38.444
  O      -80.217    -174.286     -38.014
  N      -79.374    -174.322     -40.953
  C      -78.478    -174.173     -41.911
  N      -77.354    -173.511     -41.479
  O      -78.292    -173.525     -48.034
  O      -78.435    -175.793     -46.858
  H      -73.008    -172.884     -41.958
  H      -78.885    -174.028     -48.622
  H      -78.465    -173.217     -36.644
  H      -78.603    -174.499     -42.932
  H      -76.311    -171.885     -42.157
  H      -74.778    -173.992     -41.012
  H      -76.480    -172.096     -36.129
  H      -75.187    -175.500     -42.852
  H      -75.360    -171.740     -37.405
  H      -74.779    -173.120     -44.722
  H      -74.931    -175.403     -45.732
  H      -76.517    -175.617     -45.015
  P      -72.866    -176.263     -43.788
  C      -70.914    -175.515     -45.323
  O      -72.127    -176.232     -45.206
  O      -74.248    -177.015     -44.088
  O      -72.116    -176.938     -42.687
  H      -74.250    -177.884     -43.644
  H      -70.301    -175.985     -46.096
  H      -70.356    -175.506     -44.385
  H      -71.133    -174.486     -45.624
  H      -79.643    -171.791     -45.040
  H      -79.762    -172.205     -46.733
  H      -78.240    -171.659     -46.071

 3  4  5  6  7  8  9  10  11  12  23  26  30  31 0
 6-311+G(2d,p)
 ****
 33  35  36  37  38 0
 6-311+G(2d,p)
 ****
 1  2  13  14  15  16  17  18  19  20  21  22  24  25 0
 3-21G
 ****
 27  28  29  32  34  39  40  41  42  43  44  45  46  47  48  49 0
 3-21G
 ****


