%nproc=1
%NoSave
%Mem=1900MB
#P OB98/GEN NMR

erre ene a

0 1
  C      188.462    -278.958    -412.824
  O      188.898    -277.826    -412.059
  P      187.750    -276.964    -411.319
  C      188.215    -274.668    -412.431
  O      188.237    -275.435    -411.236
  C      188.700    -273.223    -412.196
  O      187.586    -272.355    -411.864
  C      189.744    -273.105    -411.071
  O      190.635    -272.057    -411.436
  C      188.896    -272.651    -409.887
  O      189.705    -272.033    -408.893
  C      187.884    -271.719    -410.600
  N      186.685    -271.481    -409.806
  C      186.650    -270.320    -409.030
  O      187.645    -269.574    -408.968
  N      185.521    -270.030    -408.302
  C      184.523    -270.862    -408.306
  N      183.435    -270.532    -407.572
  C      184.537    -272.131    -409.072
  C      185.618    -272.364    -409.788
  O      187.824    -277.473    -409.801
  O      186.386    -277.172    -411.901
  H      189.169    -271.923    -408.070
  H      186.937    -277.708    -409.484
  H      183.687    -272.816    -409.032
  H      185.723    -273.272    -410.379
  H      188.349    -270.746    -410.810
  H      188.376    -273.504    -409.431
  H      190.289    -274.028    -410.892
  H      189.134    -272.867    -413.130
  H      183.453    -269.655    -407.063
  H      187.198    -274.644    -412.829
  H      182.605    -271.105    -407.495
  H      188.827    -275.168    -413.184
  P      191.445    -272.202    -412.805
  C      193.848    -272.002    -411.895
  O      192.784    -271.340    -412.595
  O      190.610    -271.201    -413.773
  O      191.601    -273.557    -413.413
  H      190.963    -271.263    -414.678
  H      194.726    -271.358    -411.926
  H      194.083    -272.947    -412.381
  H      193.563    -272.155    -410.843
  H      189.311    -279.442    -413.261
  H      187.800    -278.631    -413.598
  H      187.950    -279.646    -412.184

 3  4  5  6  7  8  9  10  11  12  13  21  23  27  28  29  30  32 0
 6-311+G(2d,p)
 ****
 34  35 0
 6-311+G(2d,p)
 ****
 1  2  14  15  16  17  18  19  20  22  24  25  26 0
 3-21G
 ****
 31  33  36  37  38  39  40  41  42  43  44  45  46 0
 3-21G
 ****


