%nproc=1
%NoSave
%Mem=1900MB
#P OB98/GEN NMR

erre ene a

0 1
  C       28.027    -263.022      82.230
  O       26.965    -263.961      82.265
  P       25.701    -263.712      81.310
  C       26.851    -265.119      79.453
  O       26.185    -263.911      79.790
  C       25.845    -266.240      79.191
  O       24.757    -265.736      78.368
  C       26.445    -267.445      78.460
  O       25.801    -268.646      78.914
  C       26.034    -267.228      77.020
  O       26.021    -268.452      76.287
  C       24.658    -266.589      77.208
  N       23.259    -266.877      72.360
  C       23.354    -267.878      73.305
  N       23.130    -269.137      72.874
  N       23.639    -267.664      74.564
  C       23.845    -266.354      74.851
  C       23.764    -265.271      74.002
  C       23.460    -265.526      72.613
  O       23.387    -264.688      71.718
  N       24.004    -264.097      74.666
  C       24.275    -264.465      75.905
  N       24.226    -265.827      76.056
  O       25.470    -262.132      81.428
  O       24.472    -264.464      81.696
  H       25.427    -269.063      76.765
  H       24.691    -261.953      81.986
  H       23.047    -267.095      71.400
  H       24.532    -263.797      76.712
  H       23.891    -267.343      77.422
  H       26.732    -266.541      76.528
  H       22.972    -269.377      71.907
  H       27.530    -267.551      78.575
  H       23.238    -269.893      73.537
  H       25.404    -266.547      80.145
  H       27.503    -265.409      80.279
  H       27.475    -264.959      78.567
  P       26.593    -270.016      78.640
  C       27.565    -269.745      81.042
  O       27.811    -270.031      79.678
  O       27.296    -269.758      77.227
  O       25.728    -271.232      78.632
  H       27.464    -270.605      76.772
  H       27.807    -270.628      81.636
  H       26.524    -269.467      81.222
  H       28.210    -268.918      81.348
  H       28.791    -263.322      82.916
  H       27.658    -262.056      82.506
  H       28.433    -262.979      81.241

 3  4  5  6  7  8  9  10  11  12  23  26  30  31 0
 6-311+G(2d,p)
 ****
 33  35  36  37  38 0
 6-311+G(2d,p)
 ****
 1  2  13  14  15  16  17  18  19  20  21  22  24  25 0
 3-21G
 ****
 27  28  29  32  34  39  40  41  42  43  44  45  46  47  48  49 0
 3-21G
 ****


