%nproc=1
%NoSave
%Mem=1900MB
#P OB98/GEN NMR

erre ene a

0 1
  C      123.437      -3.551      90.750
  O      124.652      -3.691      90.017
  P      124.819      -3.358      88.465
  C      126.909      -1.900      89.083
  O      125.712      -2.037      88.332
  C      128.074      -1.323      88.261
  O      128.288      -2.143      87.082
  C      127.732       0.079      87.756
  O      127.921       1.203      88.595
  C      128.434       0.186      86.409
  O      129.722       0.793      86.509
  C      128.564      -1.274      85.965
  N      127.924      -1.362      80.891
  C      128.975      -0.856      81.629
  N      129.963      -0.252      80.935
  N      129.043      -0.923      82.930
  C      127.950      -1.473      83.505
  C      126.838      -1.990      82.882
  C      126.798      -1.966      81.435
  O      125.897      -2.410      80.732
  N      125.919      -2.446      83.792
  C      126.461      -2.182      84.962
  N      127.701      -1.596      84.841
  O      123.569      -3.413      87.655
  O      125.795      -4.530      87.938
  H      129.616       1.651      86.957
  H      125.535      -4.712      87.012
  H      127.934      -1.305      79.887
  H      126.007      -2.398      85.921
  H      129.588      -1.498      85.643
  H      127.850       0.808      85.720
  H      129.914      -0.063      79.946
  H      126.658       0.083      87.526
  H      130.622       0.307      81.479
  H      129.008      -1.364      88.827
  H      127.163      -2.896      89.458
  H      126.732      -1.274      89.958
  P      126.779       2.189      89.130
  C      126.669       1.529      91.603
  O      126.028       1.462      90.342
  O      125.675       2.166      87.972
  O      127.229       3.585      89.409
  H      125.064       2.920      88.070
  H      126.247       0.764      92.258
  H      126.498       2.514      92.049
  H      127.746       1.358      91.503
  H      123.599      -3.840      91.767
  H      122.685      -4.177      90.317
  H      123.115      -2.531      90.716

 3  4  5  6  7  8  9  10  11  12  23  26  30  31 0
 6-311+G(2d,p)
 ****
 33  35  36  37  38 0
 6-311+G(2d,p)
 ****
 1  2  13  14  15  16  17  18  19  20  21  22  24  25 0
 3-21G
 ****
 27  28  29  32  34  39  40  41  42  43  44  45  46  47  48  49 0
 3-21G
 ****


