%nproc=1
%NoSave
%Mem=1900MB
#P OB98/GEN NMR

erre ene a

0 1
  C       69.364      48.665      -2.878
  O       68.058      49.180      -2.774
  P       67.712      50.735      -2.810
  C       67.190      51.142      -0.281
  O       66.697      51.060      -1.613
  C       66.057      51.454       0.707
  O       66.624      51.574       2.036
  C       65.381      52.797       0.385
  O       63.965      52.780       0.508
  C       66.146      53.780       1.263
  O       65.449      54.994       1.498
  C       66.441      52.930       2.495
  N       68.371      53.885       7.096
  C       67.192      53.250       6.763
  N       66.342      53.004       7.783
  N       66.868      52.924       5.539
  C       67.765      53.335       4.614
  C       68.967      53.970       4.823
  C       69.328      54.295       6.182
  O       70.310      54.959       6.513
  N       69.583      54.295       3.644
  C       68.740      53.889       2.718
  N       67.605      53.330       3.258
  O       67.429      51.328      -4.152
  O       69.088      51.386      -2.269
  H       66.061      55.602       1.951
  H       69.202      52.240      -2.732
  H       68.528      54.183       8.052
  H       68.883      54.001       1.649
  H       65.604      52.936       3.195
  H       67.070      54.041       0.737
  H       66.498      53.375       8.709
  H       65.540      53.064      -0.665
  H       65.382      52.773       7.539
  H       65.349      50.620       0.719
  H       67.928      51.952      -0.275
  H       67.702      50.219      -0.003
  P       62.860      53.086      -0.601
  C       63.269      55.605      -0.350
  O       62.304      54.570      -0.374
  O       61.608      52.174      -0.202
  O       63.285      52.793      -2.002
  H       61.200      51.808      -1.010
  H       62.811      56.500       0.078
  H       63.595      55.826      -1.369
  H       64.131      55.319       0.260
  H       69.331      47.597      -2.827
  H       69.961      49.042      -2.074
  H       69.792      48.964      -3.812

 3  4  5  6  7  8  9  10  11  12  23  26  30  31 0
 6-311+G(2d,p)
 ****
 33  35  36  37  38 0
 6-311+G(2d,p)
 ****
 1  2  13  14  15  16  17  18  19  20  21  22  24  25 0
 3-21G
 ****
 27  28  29  32  34  39  40  41  42  43  44  45  46  47  48  49 0
 3-21G
 ****


