%nproc=1
%NoSave
%Mem=1900MB
#P OB98/GEN NMR

erre ene a

0 1
  C      280.759    -114.991     385.540
  O      281.497    -116.004     386.194
  H      279.693    -115.166     385.711
  H      280.952    -115.012     384.464
  H      281.025    -114.010     385.945
  P      283.089    -115.980     385.973
  C      282.732    -117.861     384.199
  O      283.272    -116.581     384.493
  C      283.793    -118.931     384.426
  O      283.204    -120.248     384.409
  C      284.887    -118.961     383.363
  O      285.861    -117.944     383.541
  C      285.464    -120.343     383.600
  O      286.289    -120.328     384.779
  C      284.174    -121.167     383.836
  N      283.650    -121.777     382.613
  C      284.329    -122.906     382.135
  O      285.320    -123.336     382.720
  N      283.887    -123.500     380.976
  C      282.855    -123.020     380.355
  N      282.468    -123.640     379.205
  C      282.100    -121.847     380.834
  C      282.547    -121.280     381.953
  O      283.616    -117.173     386.901
  O      283.765    -114.671     386.209
  H      286.547    -121.253     384.956
  H      284.580    -117.322     386.737
  H      281.252    -121.476     380.279
  H      282.045    -120.413     382.364
  H      284.348    -121.958     384.577
  H      286.085    -120.696     382.776
  H      284.466    -118.926     382.350
  H      284.220    -118.778     385.430
  H      283.041    -124.403     378.870
  H      282.407    -117.868     383.154
  H      281.796    -123.235     378.568
  H      281.870    -118.062     384.844
  P      286.391    -117.180     382.233
  C      288.544    -118.633     382.219
  O      287.413    -118.174     381.493
  O      287.348    -116.051     382.836
  O      285.317    -116.603     381.362
  H      287.263    -115.214     382.340
  H      289.127    -119.282     381.599
  H      288.218    -119.167     383.087
  H      289.140    -117.796     382.518

 6  7  8  9  10  11  12  13  14  15  16  26  30  31  32  33  35 0
 6-311+G(2d,p)
 ****
 37  38 0
 6-311+G(2d,p)
 ****
 1  2  3  4  5  17  18  19  20  21  22  23  24  25 0
 3-21G
 ****
 27  28  29  34  36  39  40  41  42  43  44  45  46 0
 3-21G
 ****


