%nproc=1
%NoSave
%Mem=1900MB
#P OB98/GEN NMR

erre ene a

0 1
  C      223.771    -199.027    -142.656
  O      224.910    -199.225    -143.470
  H      223.235    -199.976    -142.570
  H      223.109    -198.289    -143.116
  H      224.069    -198.695    -141.658
  P      225.941    -197.996    -143.577
  C      225.562    -196.729    -145.844
  O      225.204    -196.897    -144.484
  C      225.051    -195.387    -146.368
  O      225.503    -194.337    -145.479
  C      225.542    -195.047    -147.777
  O      224.491    -194.377    -148.475
  C      226.695    -194.089    -147.533
  O      226.940    -193.251    -148.661
  C      226.227    -193.365    -146.260
  N      227.342    -192.796    -145.504
  C      228.135    -191.855    -146.167
  O      227.895    -191.556    -147.339
  N      229.205    -191.307    -145.507
  C      229.501    -191.715    -144.312
  N      230.587    -191.148    -143.720
  C      228.724    -192.746    -143.595
  C      227.665    -193.229    -144.239
  O      227.065    -198.599    -144.544
  O      226.450    -197.507    -142.262
  H      227.733    -192.707    -148.468
  H      226.705    -199.116    -145.283
  H      229.021    -193.063    -142.605
  H      227.034    -193.984    -143.782
  H      225.532    -192.555    -146.512
  H      227.612    -194.653    -147.329
  H      225.861    -195.920    -148.346
  H      223.956    -195.389    -146.320
  H      231.104    -190.461    -144.251
  H      225.145    -197.539    -146.450
  H      230.938    -191.427    -142.815
  H      226.653    -196.774    -145.915
  P      223.603    -195.197    -149.528
  C      224.917    -195.047    -151.742
  O      224.573    -195.854    -150.628
  O      222.421    -194.477    -150.081
  O      223.137    -196.479    -148.678
  H      222.215    -196.683    -148.927
  H      225.562    -195.597    -152.395
  H      225.420    -194.166    -151.402
  H      224.028    -194.769    -152.269

 6  7  8  9  10  11  12  13  14  15  16  26  30  31  32  33  35 0
 6-311+G(2d,p)
 ****
 37  38 0
 6-311+G(2d,p)
 ****
 1  2  3  4  5  17  18  19  20  21  22  23  24  25 0
 3-21G
 ****
 27  28  29  34  36  39  40  41  42  43  44  45  46 0
 3-21G
 ****


