%nproc=1
%NoSave
%Mem=1900MB
#P OB98/GEN NMR

erre ene a

0 1
  C      -61.565     192.999    -100.827
  O      -62.812     192.571    -100.313
  P      -64.181     192.920    -101.067
  C      -65.363     194.368     -99.314
  O      -64.676     194.356    -100.558
  C      -66.738     195.024     -99.442
  O      -66.573     196.417     -99.815
  C      -67.654     194.363    -100.482
  O      -68.984     194.393     -99.951
  C      -67.538     195.291    -101.677
  O      -68.644     195.175    -102.563
  C      -67.394     196.645    -100.977
  N      -66.823     197.664    -101.847
  C      -67.671     198.240    -102.792
  O      -68.809     197.793    -102.956
  N      -67.203     199.297    -103.537
  C      -65.946     199.613    -103.473
  N      -65.540     200.707    -104.177
  C      -64.967     198.860    -102.667
  C      -65.474     197.936    -101.850
  O      -65.223     191.850    -101.016
  O      -63.737     193.209    -102.581
  H      -64.268     192.651    -103.182
  H      -68.460     195.693    -103.374
  H      -63.912     199.081    -102.744
  H      -64.839     197.349    -101.198
  H      -68.372     196.997    -100.615
  H      -66.629     195.050    -102.241
  H      -67.372     193.328    -100.701
  H      -67.215     195.009     -98.454
  H      -66.245     201.223    -104.686
  H      -64.763     194.933     -98.598
  H      -64.682     201.211    -103.944
  H      -65.459     193.343     -98.932
  P      -69.993     193.204    -100.356
  C      -70.757     194.329    -102.566
  O      -70.147     193.210    -101.948
  O      -71.405     193.803     -99.877
  O      -69.756     191.879     -99.700
  H      -72.019     193.066     -99.696
  H      -70.838     194.129    -103.639
  H      -70.138     195.218    -102.423
  H      -71.757     194.494    -102.166
  H      -60.780     192.666    -100.181
  H      -61.551     194.067    -100.885
  H      -61.422     192.587    -101.804

 3  4  5  6  7  8  9  10  11  12  13  24  27  28  29  30  32 0
 6-311+G(2d,p)
 ****
 34  35 0
 6-311+G(2d,p)
 ****
 1  2  14  15  16  17  18  19  20  21  22  23  25  26 0
 3-21G
 ****
 31  33  36  37  38  39  40  41  42  43  44  45  46 0
 3-21G
 ****


