%nproc=1
%NoSave
%Mem=1900MB
#P OB98/GEN NMR

erre ene a

0 1
  C     -767.262     631.199     434.795
  O     -767.611     631.633     433.498
  H     -766.239     630.833     434.789
  H     -767.922     630.391     435.127
  H     -767.328     632.037     435.509
  P     -769.130     632.110     433.281
  C     -768.422     634.514     432.565
  O     -769.055     633.703     433.536
  C     -769.477     635.365     431.839
  O     -770.281     636.089     432.794
  C     -768.887     636.428     430.886
  O     -768.438     635.914     429.672
  C     -770.110     637.320     430.720
  O     -771.045     636.672     429.830
  C     -770.647     637.363     432.161
  N     -770.114     638.498     432.949
  C     -771.018     639.517     433.267
  O     -772.198     639.451     432.880
  N     -770.557     640.606     433.951
  C     -769.325     640.682     434.328
  N     -768.948     641.788     435.025
  C     -768.336     639.617     434.037
  C     -768.802     638.566     433.357
  O     -769.874     631.578     434.590
  O     -769.766     631.702     431.991
  H     -770.582     636.508     429.011
  H     -770.789     631.941     434.637
  H     -767.310     639.706     434.354
  H     -768.134     637.747     433.111
  H     -771.767     637.431     432.180
  H     -769.881     638.293     430.280
  H     -768.098     637.019     431.392
  H     -770.138     634.690     431.288
  H     -769.621     642.525     435.160
  H     -767.898     633.868     431.846
  H     -767.954     641.970     435.219
  H     -767.699     635.187     433.032
  P     -766.931     636.281     429.204
  C     -765.968     633.874     429.635
  O     -765.951     635.271     429.996
  O     -766.677     637.685     429.949
  O     -766.724     636.358     427.737
  H     -766.105     638.269     429.405
  H     -765.270     633.340     430.245
  H     -765.696     633.768     428.605
  H     -766.950     633.478     429.787

 6  7  8  9  10  11  12  13  14  15  16  26  30  31  32  33  35 0
 6-311+G(2d,p)
 ****
 37  38 0
 6-311+G(2d,p)
 ****
 1  2  3  4  5  17  18  19  20  21  22  23  24  25 0
 3-21G
 ****
 27  28  29  34  36  39  40  41  42  43  44  45  46 0
 3-21G
 ****


