%nproc=1
%NoSave
%Mem=1900MB
#P OB98/GEN NMR

erre ene a

0 1
  C     -554.669     -23.278    -626.635
  O     -555.923     -22.622    -626.646
  H     -554.351     -23.413    -625.600
  H     -553.917     -22.673    -627.156
  H     -554.754     -24.259    -627.107
  P     -556.549     -22.295    -628.085
  C     -555.837     -19.861    -627.569
  O     -555.850     -20.918    -628.522
  C     -555.520     -18.529    -628.256
  O     -554.123     -18.456    -628.574
  C     -556.273     -18.306    -629.561
  O     -557.574     -17.797    -629.304
  C     -555.392     -17.260    -630.225
  O     -555.695     -15.956    -629.681
  C     -553.977     -17.680    -629.795
  N     -550.424     -17.625    -633.501
  C     -551.053     -16.621    -632.849
  N     -552.027     -16.709    -631.913
  C     -552.331     -17.995    -631.662
  C     -551.773     -19.121    -632.250
  C     -550.773     -18.901    -633.208
  N     -550.128     -19.924    -633.876
  N     -552.339     -20.268    -631.747
  C     -553.177     -19.848    -630.825
  N     -553.242     -18.479    -630.760
  O     -558.038     -22.335    -628.166
  O     -555.790     -23.374    -629.002
  H     -556.563     -15.697    -630.054
  H     -554.853     -23.443    -628.736
  H     -550.744     -15.616    -633.111
  H     -553.758     -20.493    -630.161
  H     -553.343     -16.816    -629.564
  H     -555.547     -17.195    -631.301
  H     -556.293     -19.204    -630.184
  H     -555.743     -17.724    -627.539
  H     -555.090     -20.058    -626.793
  H     -549.569     -19.671    -634.675
  H     -550.480     -20.863    -633.749
  H     -556.823     -19.822    -627.099
  P     -558.662     -17.678    -630.479
  C     -558.372     -15.120    -630.474
  O     -558.298     -16.319    -631.245
  O     -560.077     -17.810    -630.025
  O     -558.237     -18.811    -631.526
  H     -558.978     -18.995    -632.140
  H     -558.109     -14.284    -631.088
  H     -557.693     -15.184    -629.649
  H     -559.369     -14.993    -630.107

 6  7  8  9  10  11  12  13  14  15  25  28  32  33  34  35 0
 6-311+G(2d,p)
 ****
 36  39  40 0
 6-311+G(2d,p)
 ****
 1  2  3  4  5  16  17  18  19  20  21  22  23  24 0
 3-21G
 ****
 26  27  29  30  31  37  38  41  42  43  44  45  46  47 0
 3-21G
 ****
 48 0
 3-21G
 ****


