%nproc=1
%NoSave
%Mem=1900MB
#P OB98/GEN NMR

erre ene a

0 1
  C      -81.625    -471.753    -671.303
  O      -82.268    -472.873    -670.731
  H      -80.593    -472.027    -671.543
  H      -81.611    -470.923    -670.599
  H      -82.125    -471.448    -672.233
  P      -83.840    -472.790    -670.416
  C      -83.387    -473.398    -667.946
  O      -84.120    -473.706    -669.126
  C      -83.599    -474.482    -666.882
  O      -85.027    -474.639    -666.655
  C      -83.039    -475.856    -667.268
  O      -82.494    -476.490    -666.109
  C      -84.255    -476.617    -667.752
  O      -84.108    -478.031    -667.612
  C      -85.353    -476.037    -666.872
  N      -89.049    -479.267    -668.080
  C      -87.890    -479.468    -667.362
  N      -87.672    -480.721    -666.902
  N      -87.020    -478.529    -667.100
  C      -87.381    -477.310    -667.596
  C      -88.508    -476.980    -668.327
  C      -89.456    -478.043    -668.620
  O      -90.491    -477.933    -669.269
  N      -88.501    -475.656    -668.667
  C      -87.390    -475.173    -668.148
  N      -86.663    -476.151    -667.503
  O      -84.733    -473.070    -671.591
  O      -84.057    -471.308    -669.857
  H      -84.975    -478.432    -667.841
  H      -84.484    -470.736    -670.531
  H      -89.682    -480.032    -668.251
  H      -87.058    -474.155    -668.211
  H      -85.422    -476.526    -665.897
  H      -84.430    -476.400    -668.813
  H      -88.304    -481.493    -667.045
  H      -82.264    -475.776    -668.042
  H      -86.837    -480.892    -666.345
  H      -83.163    -474.129    -665.936
  H      -83.733    -472.431    -667.565
  H      -82.316    -473.325    -668.198
  P      -80.931    -476.296    -665.768
  C      -80.454    -478.805    -665.496
  O      -80.440    -477.526    -664.861
  O      -80.552    -474.938    -665.252
  O      -80.221    -476.585    -667.180
  H      -79.433    -476.008    -667.266
  H      -80.111    -479.549    -664.808
  H      -79.811    -478.786    -666.351
  H      -81.451    -479.039    -665.805

 6  7  8  9  10  11  12  13  14  15  26  29  33  34 0
 6-311+G(2d,p)
 ****
 36  38  39  40  41 0
 6-311+G(2d,p)
 ****
 1  2  3  4  5  16  17  18  19  20  21  22  23  24  25 0
 3-21G
 ****
 27  28  30  31  32  35  37  42  43  44  45  46  47 0
 3-21G
 ****
 48  49 0
 3-21G
 ****


