%nproc=1
%NoSave
%Mem=1900MB
#P OB98/GEN NMR

erre ene a

0 1
  C        0.121       2.894     -10.068
  O       -0.358       1.564      -9.989
  P        0.611       0.341     -10.341
  C        2.591      -0.696      -9.007
  O        1.892       0.470      -9.387
  C        4.045      -0.375      -8.639
  O        4.806      -0.292      -9.869
  C        4.248       0.961      -7.933
  O        5.524       0.946      -7.290
  C        4.277       1.926      -9.096
  O        4.897       3.163      -8.756
  C        4.995       1.104     -10.196
  N        4.448       1.395     -11.534
  C        4.446       2.727     -11.936
  O        4.943       3.630     -11.265
  N        3.779       2.999     -13.099
  C        3.091       2.088     -13.845
  O        2.258       2.388     -14.692
  C        3.330       0.678     -13.502
  C        3.967       0.399     -12.362
  O        1.171       0.737     -11.787
  O       -0.042      -0.998     -10.346
  H        4.345       3.573      -8.050
  H        0.652       0.291     -12.482
  H        3.654       3.981     -13.314
  H        2.926      -0.082     -14.157
  H        4.112      -0.633     -12.057
  H        6.070       1.318     -10.218
  H        3.247       2.146      -9.405
  H        3.464       1.212      -7.213
  H        4.458      -1.196      -8.041
  H        2.550      -1.423      -9.822
  H        2.102      -1.167      -8.147
  P        5.740       1.910      -6.027
  C        4.783       1.984      -3.646
  O        4.593       1.533      -4.972
  O        5.882       3.363      -6.331
  O        7.061       1.314      -5.340
  H        7.453       1.982      -4.749
  H        3.805       2.142      -3.185
  H        5.345       2.921      -3.618
  H        5.323       1.221      -3.081
  H       -0.662       3.572      -9.799
  H        0.442       3.099     -11.068
  H        0.945       3.017      -9.397

 3  4  5  6  7  8  9  10  11  12  13  23  28  29  30  31  32 0
 6-311+G(2d,p)
 ****
 33  34 0
 6-311+G(2d,p)
 ****
 1  2  14  15  16  17  18  19  20  21  22  24  25  26  27 0
 3-21G
 ****
 35  36  37  38  39  40  41  42  43  44  45 0
 3-21G
 ****


