%nproc=1
%NoSave
%Mem=1900MB
#P OB98/GEN NMR

erre ene a

0 1
  C      -76.993    -102.457    -159.251
  O      -76.852    -103.174    -160.467
  P      -76.326    -104.686    -160.406
  C      -74.610    -104.607    -162.357
  O      -75.855    -105.095    -161.883
  C      -74.373    -105.059    -163.799
  O      -74.015    -106.475    -163.810
  C      -75.593    -104.890    -164.716
  O      -75.107    -104.573    -166.030
  C      -76.196    -106.281    -164.719
  O      -77.065    -106.513    -165.818
  C      -74.920    -107.130    -164.722
  N      -75.160    -108.519    -164.341
  C      -74.990    -109.490    -165.325
  O      -74.657    -109.247    -166.484
  N      -75.283    -110.775    -164.949
  C      -75.801    -111.163    -163.750
  O      -76.150    -112.317    -163.516
  C      -75.959    -110.098    -162.749
  C      -75.635    -108.844    -163.084
  O      -77.667    -105.530    -160.188
  O      -75.319    -104.951    -159.340
  H      -76.545    -106.395    -166.632
  H      -77.765    -105.778    -159.249
  H      -75.154    -111.492    -165.645
  H      -76.348    -110.375    -161.778
  H      -75.761    -108.037    -162.374
  H      -74.450    -107.100    -165.714
  H      -76.773    -106.431    -163.799
  H      -76.296    -104.123    -164.374
  H      -73.514    -104.507    -164.205
  H      -73.810    -104.993    -161.723
  H      -74.592    -103.513    -162.288
  P      -74.370    -103.157    -166.236
  C      -76.254    -102.210    -167.788
  O      -74.896    -102.569    -167.631
  O      -72.878    -103.645    -166.561
  O      -74.461    -102.254    -165.052
  H      -72.855    -104.402    -167.173
  H      -76.675    -101.815    -166.859
  H      -76.825    -103.088    -168.097
  H      -76.330    -101.445    -168.563
  H      -77.351    -101.470    -159.458
  H      -76.044    -102.397    -158.761
  H      -77.690    -102.964    -158.617

 3  4  5  6  7  8  9  10  11  12  13  23  28  29  30  31  32 0
 6-311+G(2d,p)
 ****
 33  34 0
 6-311+G(2d,p)
 ****
 1  2  14  15  16  17  18  19  20  21  22  24  25  26 0
 3-21G
 ****
 27  35  36  37  38  39  40  41  42  43  44  45 0
 3-21G
 ****


