%nproc=1
%NoSave
%Mem=1900MB
#P OB98/GEN NMR

erre ene a

0 1
  C      -65.222     -42.294      80.418
  O      -65.026     -43.008      79.217
  H      -64.611     -41.389      80.394
  H      -64.909     -42.903      81.269
  H      -66.272     -42.009      80.530
  P      -65.946     -44.297      78.964
  C      -68.368     -43.373      79.100
  O      -67.293     -43.771      78.264
  C      -69.705     -43.598      78.393
  O      -70.778     -43.437      79.357
  C      -69.960     -42.628      77.237
  O      -70.614     -43.337      76.181
  C      -70.915     -41.608      77.829
  O      -71.715     -40.963      76.838
  C      -71.700     -42.463      78.832
  N      -72.286     -41.646      79.890
  C      -73.084     -42.308      80.826
  O      -73.273     -43.522      80.731
  N      -73.696     -41.577      81.811
  C      -73.592     -40.285      81.811
  N      -74.247     -39.612      82.796
  C      -72.816     -39.537      80.802
  C      -72.189     -40.273      79.886
  O      -66.432     -44.700      80.433
  O      -65.281     -45.428      78.254
  H      -72.201     -40.226      77.267
  H      -66.558     -45.665      80.512
  H      -72.780     -38.458      80.828
  H      -71.602     -39.812      79.101
  H      -72.506     -43.011      78.324
  H      -70.345     -40.834      78.356
  H      -69.048     -42.164      76.854
  H      -69.742     -44.638      78.046
  H      -74.783     -40.160      83.458
  H      -68.264     -42.308      79.331
  H      -74.273     -38.607      82.866
  H      -68.331     -43.941      80.036
  P      -69.686     -43.870      74.988
  C      -69.198     -46.383      75.426
  O      -70.008     -45.424      74.761
  O      -68.222     -43.876      75.633
  O      -69.744     -43.024      73.759
  H      -67.686     -43.157      75.250
  H      -69.534     -47.368      75.177
  H      -69.270     -46.239      76.484
  H      -68.180     -46.265      75.118

 6  7  8  9  10  11  12  13  14  15  16  26  30  31  32  33  35 0
 6-311+G(2d,p)
 ****
 37  38 0
 6-311+G(2d,p)
 ****
 1  2  3  4  5  17  18  19  20  21  22  23  24  25 0
 3-21G
 ****
 27  28  29  34  36  39  40  41  42  43  44  45  46 0
 3-21G
 ****


