%nproc=1
%NoSave
%Mem=1900MB
#P OB98/GEN NMR

erre ene a

0 1
  C      490.758    -890.820    -898.890
  O      490.411    -891.920    -898.060
  P      489.738    -893.250    -898.680
  C      491.031    -895.130    -897.440
  O      490.839    -894.430    -898.690
  C      492.526    -895.040    -897.000
  O      492.924    -893.650    -896.790
  C      492.862    -895.750    -895.680
  O      492.894    -897.160    -895.890
  C      494.180    -895.120    -895.320
  O      495.272    -895.740    -896.030
  C      493.988    -893.660    -895.790
  N      493.679    -892.750    -894.700
  C      494.637    -892.650    -893.680
  O      495.663    -893.330    -893.740
  N      494.412    -891.770    -892.670
  C      493.296    -891.120    -892.590
  N      493.119    -890.250    -891.530
  C      492.220    -891.230    -893.600
  C      492.462    -892.090    -894.620
  O      489.086    -893.070    -900.000
  O      488.668    -893.730    -897.580
  H      495.341    -896.660    -895.740
  H      487.954    -894.190    -898.010
  H      491.250    -890.720    -893.500
  H      491.739    -892.250    -895.380
  H      494.898    -893.300    -896.300
  H      494.390    -895.210    -894.250
  H      492.099    -895.510    -894.940
  H      493.137    -895.440    -897.820
  H      493.883    -890.170    -890.880
  H      490.774    -896.190    -897.540
  H      492.290    -889.690    -891.400
  H      490.412    -894.660    -896.670
  P      491.529    -898.010    -896.090
  C      492.081    -899.070    -898.330
  O      491.257    -898.140    -897.640
  O      490.357    -897.520    -895.260
  O      491.963    -899.480    -895.650
  H      491.178    -899.940    -895.260
  H      491.547    -899.400    -899.260
  H      492.259    -900.000    -897.720
  H      493.045    -898.640    -898.590
  H      491.188    -890.044    -898.292
  H      489.880    -890.450    -899.378
  H      491.467    -891.138    -899.625

 3  4  5  6  7  8  9  10  11  12  13  23  27  28  29  30  32 0
 6-311+G(2d,p)
 ****
 34  35 0
 6-311+G(2d,p)
 ****
 1  2  14  15  16  17  18  19  20  21  22  24  25  26 0
 3-21G
 ****
 31  33  36  37  38  39  40  41  42  43  44  45  46 0
 3-21G
 ****


