%nproc=1
%NoSave
%Mem=1900MB
#P OB98/GEN NMR

erre ene a

0 1
  C      289.884      78.991     268.580
  O      289.690      79.471     269.908
  P      290.952      79.447     270.896
  C      290.899      81.972     271.601
  O      291.573      80.924     270.933
  C      291.899      82.983     272.194
  O      292.549      82.369     273.335
  C      293.029      83.406     271.263
  O      293.605      84.619     271.755
  C      294.013      82.270     271.437
  O      295.321      82.630     270.990
  C      293.885      81.953     272.941
  N      294.086      80.522     273.266
  C      295.223      79.885     272.775
  O      296.075      80.439     272.087
  N      295.339      78.554     273.070
  C      294.471      77.821     273.829
  O      294.579      76.611     273.988
  C      293.368      78.573     274.433
  C      293.221      79.863     274.126
  O      292.039      78.584     270.099
  O      290.653      78.870     272.239
  H      295.944      82.007     271.416
  H      292.113      77.692     270.491
  H      296.122      78.062     272.669
  H      292.694      78.041     275.097
  H      292.391      80.430     274.549
  H      294.616      82.522     273.532
  H      293.693      81.410     270.844
  H      292.730      83.532     270.213
  H      291.349      83.858     272.558
  H      290.263      81.560     272.389
  H      290.234      82.487     270.900
  P      293.511      85.924     270.828
  C      293.269      87.449     272.885
  O      292.692      87.019     271.665
  O      293.054      85.699     269.427
  O      295.011      86.500     270.875
  H      295.155      87.103     270.128
  H      292.956      88.474     273.082
  H      294.362      87.409     272.847
  H      292.914      86.802     273.695
  H      288.965      79.065     268.036
  H      290.198      77.969     268.613
  H      290.634      79.579     268.094

 3  4  5  6  7  8  9  10  11  12  13  23  28  29  30  31  32 0
 6-311+G(2d,p)
 ****
 33  34 0
 6-311+G(2d,p)
 ****
 1  2  14  15  16  17  18  19  20  21  22  24  25  26  27 0
 3-21G
 ****
 35  36  37  38  39  40  41  42  43  44  45 0
 3-21G
 ****


