%nproc=1
%NoSave
%Mem=1900MB
#P OB98/GEN NMR

erre ene a

0 1
  C       85.022    -715.931     196.682
  O       83.920    -716.111     197.549
  H       85.727    -716.749     196.846
  H       85.526    -714.987     196.895
  H       84.693    -715.956     195.638
  P       82.760    -715.004     197.556
  C       83.296    -713.427     199.528
  O       83.408    -713.653     198.128
  C       84.452    -712.548     200.017
  O       84.258    -711.220     199.464
  C       84.494    -712.430     201.552
  O       85.768    -712.753     202.096
  C       83.936    -711.035     201.807
  O       84.374    -710.447     203.016
  C       84.319    -710.266     200.541
  N       83.456    -709.119     200.261
  C       84.059    -707.861     200.216
  O       85.255    -707.644     200.378
  N       83.213    -706.810     199.960
  C       81.864    -706.892     199.769
  O       81.160    -705.913     199.539
  C       81.284    -708.240     199.854
  C       82.095    -709.274     200.095
  O       81.486    -715.416     198.219
  O       82.536    -714.668     196.008
  H       85.336    -710.285     202.926
  H       81.704    -715.085     195.702
  H       83.639    -705.902     199.907
  H       80.217    -708.338     199.720
  H       81.699    -710.283     200.161
  H       85.343    -709.894     200.612
  H       82.842    -711.104     201.864
  H       83.826    -713.167     202.016
  H       85.392    -712.938     199.613
  H       83.319    -714.402     200.031
  H       82.338    -712.935     199.744
  P       86.153    -714.134     202.778
  C       84.212    -713.904     204.535
  O       84.871    -714.695     203.561
  O       87.454    -714.173     203.510
  O       86.275    -715.154     201.529
  H       86.963    -715.809     201.778
  H       83.387    -714.451     204.940
  H       83.854    -713.004     204.081
  H       84.898    -713.660     205.319

 6  7  8  9  10  11  12  13  14  15  16  26  31  32  33  34  35 0
 6-311+G(2d,p)
 ****
 36  37 0
 6-311+G(2d,p)
 ****
 1  2  3  4  5  17  18  19  20  21  22  23  24  25 0
 3-21G
 ****
 27  28  29  30  38  39  40  41  42  43  44  45 0
 3-21G
 ****


