%nproc=1
%NoSave
%Mem=1900MB
#P OB98/GEN NMR

erre ene a

0 1
  C     2446.432     139.831    1279.848
  O     2446.964     139.718    1278.511
  P     2448.169     140.713    1278.077
  C     2449.887     138.871    1277.497
  O     2449.583     139.988    1278.348
  C     2451.366     138.472    1277.637
  O     2452.244     139.466    1276.996
  C     2451.818     138.362    1279.124
  O     2452.827     137.369    1279.258
  C     2452.509     139.734    1279.324
  O     2453.398     139.671    1280.446
  C     2453.163     139.937    1277.966
  N     2456.603     143.693    1278.696
  C     2456.628     142.385    1279.010
  N     2455.684     141.453    1278.756
  C     2454.647     141.963    1278.103
  C     2454.491     143.280    1277.672
  C     2455.532     144.161    1277.999
  N     2455.494     145.513    1277.683
  N     2453.274     143.459    1277.029
  C     2452.689     142.265    1277.092
  N     2453.514     141.323    1277.724
  O     2448.101     142.093    1278.622
  O     2448.100     140.708    1276.473
  H     2454.173     139.170    1280.196
  H     2448.183     141.624    1276.154
  H     2457.496     142.026    1279.542
  H     2451.710     142.070    1276.714
  H     2454.087     139.333    1277.855
  H     2451.743     140.481    1279.502
  H     2451.012     138.196    1279.818
  H     2451.534     137.531    1277.115
  H     2449.692     139.141    1276.461
  H     2456.213     146.096    1278.025
  H     2454.655     145.939    1277.323
  H     2449.208     138.030    1277.745
  P     2452.277     135.885    1279.579
  C     2452.294     135.360    1276.979
  O     2451.572     135.363    1278.252
  O     2451.441     135.807    1280.840
  O     2453.645     135.043    1279.666
  H     2454.242     135.151    1278.920
  H     2451.664     134.862    1276.252
  H     2453.214     134.823    1277.138
  H     2452.471     136.408    1276.687
  H     2445.649     139.114    1279.982
  H     2446.042     140.816    1279.994
  H     2447.211     139.647    1280.558

 3  4  5  6  7  8  9  10  11  12  22  25  29  30  31  32 0
 6-311+G(2d,p)
 ****
 33  36  37 0
 6-311+G(2d,p)
 ****
 1  2  13  14  15  16  17  18  19  20  21  23  24  26 0
 3-21G
 ****
 27  28  34  35  38  39  40  41  42  43  44  45  46  47  48 0
 3-21G
 ****


