%nproc=1
%NoSave
%Mem=1900MB
#P OB98/GEN NMR

erre ene a

0 1
  C     -646.466    -626.927     571.867
  O     -646.435    -627.777     572.994
  H     -646.923    -627.471     571.033
  H     -645.448    -626.639     571.586
  H     -647.061    -626.027     572.065
  P     -646.119    -627.138     574.429
  C     -647.349    -629.189     575.417
  O     -646.217    -628.333     575.499
  C     -647.229    -630.355     576.413
  O     -646.351    -631.366     575.848
  C     -646.582    -629.887     577.728
  O     -647.002    -630.678     578.843
  C     -645.096    -630.141     577.480
  O     -644.345    -630.290     578.688
  C     -645.143    -631.404     576.625
  N     -640.185    -632.529     576.221
  C     -640.928    -632.318     577.350
  N     -640.280    -632.420     578.540
  N     -642.210    -632.006     577.333
  C     -642.710    -631.870     576.075
  C     -642.063    -632.038     574.878
  C     -640.660    -632.413     574.910
  O     -639.944    -632.595     573.935
  N     -642.905    -631.812     573.820
  C     -644.061    -631.493     574.363
  N     -643.996    -631.544     575.739
  O     -647.429    -626.270     574.756
  O     -644.875    -626.307     574.513
  H     -644.733    -629.686     579.351
  H     -647.220    -625.589     575.408
  H     -639.216    -632.800     576.288
  H     -644.956    -631.243     573.828
  H     -645.179    -632.299     577.254
  H     -644.698    -629.275     576.949
  H     -639.275    -632.450     578.585
  H     -646.769    -628.842     577.947
  H     -640.725    -631.962     579.333
  H     -648.199    -630.813     576.570
  H     -647.388    -629.566     574.392
  H     -648.263    -628.627     575.593
  P     -648.140    -630.095     579.804
  C     -648.334    -632.600     580.688
  O     -648.576    -631.214     580.872
  O     -649.410    -629.963     578.854
  O     -647.783    -628.800     580.452
  H     -649.661    -629.035     578.740
  H     -648.713    -633.143     581.529
  H     -647.281    -632.770     580.599
  H     -648.825    -632.933     579.798

 6  7  8  9  10  11  12  13  14  15  26  29  33  34 0
 6-311+G(2d,p)
 ****
 36  38  39  40  41 0
 6-311+G(2d,p)
 ****
 1  2  3  4  5  16  17  18  19  20  21  22  23  24  25 0
 3-21G
 ****
 27  28  30  31  32  35  37  42  43  44  45  46  47 0
 3-21G
 ****
 48  49 0
 3-21G
 ****


