%nproc=1
%NoSave
%Mem=1900MB
#P OB98/GEN NMR

erre ene a

0 1
  C     -246.150    -100.990     -12.453
  O     -245.000    -100.637     -11.704
  P     -244.498     -99.116     -11.802
  C     -242.183     -99.528     -12.916
  O     -243.519     -99.060     -13.072
  C     -241.253     -98.815     -13.894
  O     -241.544     -99.226     -15.241
  C     -241.392     -97.303     -13.890
  O     -240.735     -96.746     -12.769
  C     -240.759     -96.936     -15.225
  O     -239.335     -96.792     -15.099
  C     -241.115     -98.156     -16.110
  N     -242.120     -97.843     -17.113
  C     -241.648     -97.259     -18.292
  O     -240.445     -97.021     -18.423
  N     -242.551     -96.924     -19.271
  C     -243.814     -97.149     -19.082
  N     -244.665     -96.802     -20.087
  C     -244.357     -97.746     -17.845
  C     -243.463     -98.060     -16.907
  O     -243.503     -98.982     -10.555
  O     -245.586     -98.094     -11.774
  H     -239.003     -97.671     -14.826
  H     -243.449     -98.055     -10.254
  H     -245.419     -97.911     -17.738
  H     -243.775     -98.499     -15.967
  H     -240.220     -98.520     -16.632
  H     -241.141     -95.986     -15.612
  H     -242.452     -97.014     -13.890
  H     -240.219     -99.108     -13.660
  H     -244.264     -96.391     -20.920
  H     -242.153    -100.604     -13.120
  H     -245.663     -96.958     -20.046
  H     -241.865     -99.360     -11.882
  P     -241.334     -95.396     -12.147
  C     -239.567     -93.990     -13.363
  O     -240.948     -94.252     -13.200
  O     -240.319     -95.100     -10.940
  O     -242.754     -95.428     -11.692
  H     -240.640     -94.344     -10.415
  H     -239.436     -93.311     -14.208
  H     -239.023     -94.917     -13.567
  H     -239.169     -93.513     -12.464
  H     -246.373    -102.025     -12.298
  H     -245.965    -100.817     -13.493
  H     -246.980    -100.395     -12.134

 3  4  5  6  7  8  9  10  11  12  13  21  23  27  28  29  30  32 0
 6-311+G(2d,p)
 ****
 34  35 0
 6-311+G(2d,p)
 ****
 1  2  14  15  16  17  18  19  20  22  24  25  26 0
 3-21G
 ****
 31  33  36  37  38  39  40  41  42  43  44  45  46 0
 3-21G
 ****


