%nproc=1
%NoSave
%Mem=1900MB
#P OB98/GEN NMR

erre ene a

0 1
  C     -208.008     -88.396    -355.930
  O     -207.040     -89.106    -355.156
  P     -206.389     -88.369    -353.890
  C     -203.995     -88.225    -354.856
  O     -204.822     -88.751    -353.820
  C     -202.656     -88.981    -354.908
  O     -202.928     -90.373    -355.258
  C     -201.667     -88.480    -355.968
  O     -200.752     -87.444    -355.601
  C     -200.832     -89.727    -356.216
  O     -199.805     -89.836    -355.217
  C     -201.829     -90.868    -356.052
  N     -202.123     -94.988    -359.098
  C     -201.569     -94.797    -357.878
  N     -201.531     -93.667    -357.139
  C     -202.167     -92.669    -357.762
  C     -202.794     -92.713    -358.999
  C     -202.753     -93.936    -359.687
  N     -203.320     -94.126    -360.927
  N     -203.342     -91.478    -359.318
  C     -203.023     -90.705    -358.299
  N     -202.340     -91.375    -357.324
  O     -207.135     -88.501    -352.604
  O     -206.341     -86.837    -354.371
  H     -199.526     -90.778    -355.205
  H     -206.535     -86.262    -353.604
  H     -201.078     -95.669    -357.450
  H     -203.280     -89.653    -358.220
  H     -201.406     -91.732    -355.522
  H     -200.317     -89.702    -357.190
  H     -202.195     -88.190    -356.893
  H     -202.190     -88.968    -353.922
  H     -203.804     -87.164    -354.664
  H     -203.211     -95.026    -361.368
  H     -203.737     -93.344    -361.405
  H     -204.553     -88.285    -355.793
  P     -200.510     -86.171    -356.540
  C     -197.915     -86.187    -356.270
  O     -199.122     -85.523    -356.045
  O     -201.648     -85.218    -356.627
  O     -200.101     -86.843    -357.937
  H     -199.244     -87.302    -357.924
  H     -197.081     -85.501    -356.057
  H     -197.826     -86.512    -357.316
  H     -197.831     -87.050    -355.593
  H     -208.346     -89.016    -356.734
  H     -207.564     -87.507    -356.328
  H     -208.838     -88.133    -355.308

 3  4  5  6  7  8  9  10  11  12  22  25  29  30  31  32 0
 6-311+G(2d,p)
 ****
 33  36  37 0
 6-311+G(2d,p)
 ****
 1  2  13  14  15  16  17  18  19  20  21  23  24  26 0
 3-21G
 ****
 27  28  34  35  38  39  40  41  42  43  44  45  46  47  48 0
 3-21G
 ****


