%nproc=1
%NoSave
%Mem=1900MB
#P OB98/GEN NMR

erre ene a

0 1
  C        3.430     -38.090     -27.692
  O        2.366     -37.167     -27.543
  P        1.179     -37.561     -26.535
  C        0.028     -38.521     -28.657
  O        0.314     -38.694     -27.274
  C       -1.457     -38.742     -28.949
  O       -1.757     -40.153     -28.816
  C       -2.397     -37.969     -28.024
  O       -3.519     -37.542     -28.798
  C       -2.856     -39.018     -27.029
  O       -4.112     -38.678     -26.445
  C       -2.870     -40.278     -27.908
  N       -2.781     -41.502     -27.119
  C       -3.950     -41.931     -26.484
  O       -4.969     -41.243     -26.541
  N       -3.921     -43.097     -25.761
  C       -2.797     -43.722     -25.596
  N       -2.821     -44.873     -24.873
  C       -1.517     -43.236     -26.145
  C       -1.585     -42.145     -26.906
  O        0.225     -36.279     -26.586
  O        1.623     -37.883     -25.146
  H       -4.342     -39.374     -25.791
  H       -0.217     -36.140     -25.727
  H       -0.602     -43.774     -25.947
  H       -0.700     -41.730     -27.370
  H       -3.787     -40.319     -28.511
  H       -2.117     -39.118     -26.226
  H       -1.918     -37.103     -27.558
  H       -1.644     -38.468     -29.995
  H       -3.708     -45.178     -24.494
  H        0.602     -39.253     -29.233
  H       -1.994     -45.426     -24.692
  H        0.340     -37.521     -28.970
  P       -3.910     -35.988     -28.746
  C       -5.776     -36.656     -27.115
  O       -4.676     -35.800     -27.350
  O       -5.129     -35.931     -29.789
  O       -2.863     -34.981     -29.086
  H       -5.423     -35.009     -29.899
  H       -6.114     -36.516     -26.084
  H       -5.485     -37.700     -27.252
  H       -6.598     -36.401     -27.791
  H        4.144     -37.702     -28.388
  H        3.047     -39.020     -28.056
  H        3.903     -38.245     -26.745

 3  4  5  6  7  8  9  10  11  12  13  21  23  27  28  29  30  32 0
 6-311+G(2d,p)
 ****
 34  35 0
 6-311+G(2d,p)
 ****
 1  2  14  15  16  17  18  19  20  22  24  25  26 0
 3-21G
 ****
 31  33  36  37  38  39  40  41  42  43  44  45  46 0
 3-21G
 ****


