%nproc=1
%NoSave
%Mem=1900MB
#P OB98/GEN NMR

erre ene a

0 1
  C      -57.537      25.926      58.515
  O      -56.177      25.872      58.127
  H      -57.600      26.382      59.506
  H      -57.961      24.921      58.565
  H      -58.110      26.537      57.812
  P      -55.821      25.236      56.701
  C      -56.487      23.028      55.540
  O      -56.285      23.703      56.775
  C      -55.886      21.629      55.605
  O      -54.452      21.691      55.487
  C      -56.183      20.887      56.907
  O      -57.482      20.318      56.869
  C      -55.074      19.848      56.890
  O      -55.407      18.796      55.964
  C      -53.888      20.671      56.357
  N      -50.193      20.086      59.777
  C      -50.784      19.158      58.942
  N      -50.356      17.883      59.069
  N      -51.721      19.449      58.078
  C      -52.095      20.748      58.114
  C      -51.597      21.757      58.907
  C      -50.521      21.434      59.820
  O      -49.958      22.230      60.566
  N      -52.272      22.934      58.707
  C      -53.151      22.646      57.768
  N      -53.094      21.328      57.383
  O      -54.410      25.417      56.226
  O      -56.882      25.896      55.704
  H      -56.172      18.325      56.341
  H      -56.523      26.702      55.290
  H      -49.489      19.796      60.435
  H      -53.847      23.352      57.330
  H      -53.200      20.068      55.754
  H      -54.904      19.384      57.862
  H      -49.861      17.566      59.894
  H      -56.043      21.530      57.782
  H      -50.811      17.180      58.502
  H      -56.255      21.064      54.739
  H      -56.000      23.619      54.757
  H      -57.556      22.959      55.314
  P      -58.483      20.457      58.117
  C      -58.412      19.654      60.573
  O      -57.803      19.601      59.290
  O      -59.901      20.098      57.826
  O      -58.287      21.957      58.625
  H      -58.881      22.607      58.175
  H      -57.860      19.042      61.255
  H      -59.418      19.295      60.505
  H      -58.416      20.665      60.924

 6  7  8  9  10  11  12  13  14  15  26  29  33  34 0
 6-311+G(2d,p)
 ****
 36  38  39  40  41 0
 6-311+G(2d,p)
 ****
 1  2  3  4  5  16  17  18  19  20  21  22  23  24  25 0
 3-21G
 ****
 27  28  30  31  32  35  37  42  43  44  45  46  47 0
 3-21G
 ****
 48  49 0
 3-21G
 ****


