%nproc=1
%NoSave
%Mem=1900MB
#P OB98/GEN NMR

erre ene a

0 1
  C      -20.688     -40.153    -100.335
  O      -21.569     -40.325     -99.243
  H      -19.666     -40.324     -99.992
  H      -20.765     -39.134    -100.724
  H      -20.921     -40.871    -101.127
  P      -23.133     -40.137     -99.544
  C      -24.279     -42.470     -99.494
  O      -23.619     -41.480    -100.272
  C      -23.782     -43.856     -99.896
  O      -22.475     -44.091     -99.322
  C      -24.657     -44.994     -99.391
  O      -25.823     -45.169    -100.175
  C      -23.691     -46.164     -99.471
  O      -23.640     -46.712    -100.794
  C      -22.349     -45.516     -99.112
  N      -18.395     -46.418     -96.013
  C      -18.460     -46.098     -97.324
  N      -19.555     -45.862     -98.076
  C      -20.669     -45.952     -97.329
  C      -20.759     -46.265     -95.983
  C      -19.548     -46.504     -95.311
  N      -19.483     -46.852     -93.983
  N      -22.079     -46.303     -95.581
  C      -22.774     -46.010     -96.660
  N      -21.964     -45.787     -97.740
  O      -23.147     -39.043    -100.712
  O      -23.956     -39.713     -98.376
  H      -24.548     -47.006    -101.004
  H      -23.351     -38.166    -100.336
  H      -17.506     -46.035     -97.840
  H      -23.854     -45.956     -96.713
  H      -21.533     -45.869     -99.753
  H      -23.989     -46.963     -98.792
  H      -24.922     -44.828     -98.339
  H      -23.687     -43.891    -100.988
  H      -25.359     -42.409     -99.670
  H      -24.079     -42.280     -98.435
  H      -18.586     -47.075     -93.585
  H      -20.342     -47.031     -93.481
  P      -27.227     -44.745     -99.528
  C      -28.151     -43.135    -101.360
  O      -27.575     -43.277    -100.068
  O      -26.882     -44.511     -97.982
  O      -28.319     -45.744     -99.708
  H      -27.634     -44.794     -97.429
  H      -28.319     -42.098    -101.564
  H      -29.082     -43.661    -101.395
  H      -27.485     -43.539    -102.094

 6  7  8  9  10  11  12  13  14  15  25  28  32  33  34  35 0
 6-311+G(2d,p)
 ****
 36  37  40 0
 6-311+G(2d,p)
 ****
 1  2  3  4  5  16  17  18  19  20  21  22  23  24 0
 3-21G
 ****
 26  27  29  30  31  38  39 41  42  43  44  45  46  47  48 0
 3-21G
 ****


