%nproc=1
%NoSave
%Mem=1900MB
#P OB98/GEN NMR

erre ene a

0 1
  C     1021.779    -457.808     423.193
  O     1022.919    -457.020     423.486
  P     1022.710    -455.432     423.621
  C     1021.506    -455.402     425.931
  O     1022.698    -455.093     425.176
  C     1021.753    -455.124     427.433
  O     1022.621    -456.094     428.007
  C     1022.434    -453.769     427.719
  O     1021.527    -452.695     427.672
  C     1022.947    -454.007     429.142
  O     1021.886    -453.804     430.077
  C     1023.411    -455.479     429.068
  N     1027.993    -455.471     431.225
  C     1026.737    -455.491     431.807
  N     1026.681    -455.396     433.176
  N     1025.586    -455.530     431.140
  C     1025.806    -455.590     429.791
  C     1026.987    -455.654     429.099
  C     1028.217    -455.554     429.857
  O     1029.366    -455.510     429.407
  N     1026.754    -455.750     427.744
  C     1025.466    -455.777     427.622
  N     1024.828    -455.645     428.850
  O     1021.190    -455.213     423.172
  O     1023.655    -454.611     422.801
  H     1021.634    -452.863     430.033
  H     1021.025    -454.264     422.960
  H     1028.800    -455.424     431.806
  H     1024.938    -455.862     426.698
  H     1023.130    -455.989     429.982
  H     1023.762    -453.320     429.405
  H     1027.521    -455.250     433.730
  H     1023.282    -453.584     427.036
  H     1025.774    -455.309     433.611
  H     1020.798    -455.174     427.950
  H     1021.286    -456.464     425.803
  H     1020.687    -454.786     425.583
  P     1022.131    -451.228     427.417
  C     1021.568    -451.088     424.829
  O     1021.282    -450.649     426.185
  O     1023.576    -451.549     426.766
  O     1022.248    -450.363     428.634
  H     1024.188    -450.844     426.914
  H     1020.734    -450.803     424.210
  H     1021.671    -452.194     424.801
  H     1022.507    -450.624     424.494
  H     1022.063    -458.838     423.132
  H     1021.362    -457.498     422.258
  H     1021.051    -457.684     423.967

 3  4  5  6  7  8  9  10  11  12  23  26  30  31 0
 6-311+G(2d,p)
 ****
 33  35  36  37  38 0
 6-311+G(2d,p)
 ****
 1  2  13  14  15  16  17  18  19  20  21  22  24  25 0
 3-21G
 ****
 27  28  29  32  34  39  40  41  42  43  44  45  46  47  48  49 0
 3-21G
 ****


