%nproc=1
%NoSave
%Mem=1900MB
#P OB98/GEN NMR

erre ene a

0 1
  C      -81.717     393.596       8.792
  O      -80.438     392.955       8.755
  P      -80.133     391.725       7.771
  C      -77.888     392.700       6.995
  O      -78.548     391.563       7.540
  C      -76.395     392.460       6.725
  O      -75.623     392.538       7.956
  C      -76.064     391.106       6.083
  O      -74.909     391.330       5.269
  C      -75.711     390.259       7.293
  O      -74.964     389.091       6.967
  C      -74.953     391.276       8.137
  N      -71.891     390.644      12.193
  C      -71.674     391.199      10.985
  N      -72.548     391.366       9.970
  C      -73.768     390.932      10.312
  C      -74.145     390.350      11.513
  C      -73.137     390.203      12.483
  N      -73.344     389.592      13.701
  N      -75.486     389.997      11.491
  C      -75.899     390.350      10.292
  N      -74.904     390.922       9.543
  O      -80.932     391.737       6.505
  O      -80.512     390.426       8.636
  H      -74.895     388.542       7.768
  H      -81.040     389.819       8.084
  H      -70.660     391.549      10.805
  H      -76.898     390.197       9.904
  H      -73.920     391.395       7.781
  H      -76.638     389.935       7.786
  H      -76.884     390.693       5.492
  H      -76.041     393.282       6.086
  H      -78.000     393.538       7.696
  H      -72.536     389.451      14.297
  H      -74.228     389.146      13.883
  H      -78.389     392.985       6.060
  P      -75.025     391.575       3.687
  C      -72.789     392.818       3.604
  O      -73.529     391.706       3.133
  O      -75.942     392.686       3.290
  O      -75.514     390.170       3.097
  H      -75.896     390.305       2.209
  H      -73.120     393.725       3.093
  H      -71.729     392.655       3.397
  H      -72.918     392.946       4.685
  H      -81.700     394.385       9.514
  H      -82.466     392.882       9.063
  H      -81.941     394.000       7.827

 3  4  5  6  7  8  9  10  11  12  22  25  29  30  31  32 0
 6-311+G(2d,p)
 ****
 33  36  37 0
 6-311+G(2d,p)
 ****
 1  2  13  14  15  16  17  18  19  20  21  23  24  26 0
 3-21G
 ****
 27  28  34  35  38  39  40  41  42  43  44  45  46  47  48 0
 3-21G
 ****


