%nproc=1
%NoSave
%Mem=1900MB
#P OB98/GEN NMR

erre ene a

0 1
  C      732.099    -676.531    -475.268
  O      733.487    -676.699    -475.046
  H      731.625    -677.517    -475.263
  H      731.923    -676.059    -476.237
  H      731.663    -675.923    -474.470
  P      734.380    -675.364    -475.057
  C      734.134    -673.126    -473.799
  O      733.850    -674.519    -473.795
  C      733.901    -672.530    -472.414
  O      732.487    -672.593    -472.099
  C      734.661    -673.274    -471.303
  O      735.136    -672.335    -470.339
  C      733.583    -674.150    -470.664
  O      733.888    -674.477    -469.317
  C      732.343    -673.279    -470.848
  N      727.918    -674.119    -468.426
  C      728.875    -673.170    -468.277
  N      730.003    -673.007    -468.978
  C      730.110    -673.935    -469.945
  C      729.227    -674.969    -470.224
  C      728.076    -675.049    -469.390
  N      727.124    -676.029    -469.521
  N      729.693    -675.734    -471.271
  C      730.824    -675.173    -471.628
  N      731.125    -674.080    -470.858
  O      734.427    -674.623    -476.353
  O      735.800    -675.912    -474.535
  H      733.872    -673.653    -468.779
  H      735.679    -676.517    -473.785
  H      728.688    -672.439    -467.485
  H      731.466    -675.516    -472.431
  H      732.229    -672.543    -470.042
  H      733.487    -675.082    -471.230
  H      735.488    -673.870    -471.691
  H      734.179    -671.471    -472.426
  H      733.482    -672.613    -474.517
  H      726.327    -676.013    -468.909
  H      727.208    -676.721    -470.265
  H      735.174    -672.991    -474.115
  P      736.626    -671.750    -470.517
  C      737.980    -670.854    -472.520
  O      736.694    -670.971    -471.918
  O      737.740    -672.700    -470.261
  O      736.637    -670.548    -469.467
  H      737.520    -670.500    -469.051
  H      737.895    -670.319    -473.442
  H      738.375    -671.830    -472.709
  H      738.636    -670.325    -471.860

 6  7  8  9  10  11  12  13  14  15  25  28  32  33  34  35 0
 6-311+G(2d,p)
 ****
 36  39  40 0
 6-311+G(2d,p)
 ****
 1  2  3  4  5  16  17  18  19  20  21  22  23  24 0
 3-21G
 ****
 26  27  29  30  31  37  38  41  42  43  44  45  46  47 0
 3-21G
 ****
 48 0
 3-21G
 ****


