%nproc=1
%NoSave
%Mem=1900MB
#P OB98/GEN NMR

erre ene a

0 1
  C     -304.389    -160.000      64.993
  O     -305.615    -160.546      64.540
  P     -306.450    -161.531      65.485
  C     -307.264    -162.964      63.471
  O     -307.611    -162.170      64.584
  C     -308.342    -164.020      63.184
  O     -308.415    -164.902      64.332
  C     -309.749    -163.464      62.992
  O     -310.544    -164.453      62.338
  C     -310.216    -163.303      64.424
  O     -311.635    -163.230      64.524
  C     -309.559    -164.519      65.126
  N     -309.142    -164.187      66.502
  C     -310.153    -163.966      67.433
  O     -311.348    -164.112      67.172
  N     -309.755    -163.492      68.651
  C     -308.469    -163.182      68.993
  O     -308.169    -162.480      69.952
  C     -307.431    -163.656      68.065
  C     -307.810    -164.107      66.865
  O     -307.228    -160.519      66.449
  O     -305.632    -162.512      66.252
  H     -311.986    -164.112      64.252
  H     -306.744    -160.415      67.290
  H     -310.495    -163.197      69.275
  H     -306.396    -163.564      68.363
  H     -307.063    -164.415      66.138
  H     -310.253    -165.368      65.182
  H     -309.807    -162.369      64.830
  H     -309.787    -162.521      62.442
  H     -308.042    -164.620      62.317
  H     -306.296    -163.441      63.657
  H     -307.137    -162.337      62.583
  P     -311.079    -164.131      60.856
  C     -313.519    -164.797      61.293
  O     -312.322    -165.105      60.606
  O     -310.045    -164.112      59.781
  O     -311.780    -162.699      61.034
  H     -311.879    -162.272      60.164
  H     -314.368    -165.145      60.700
  H     -313.621    -163.719      61.458
  H     -313.523    -165.313      62.258
  H     -303.977    -159.370      64.233
  H     -303.704    -160.793      65.210
  H     -304.560    -159.425      65.879

 3  4  5  6  7  8  9  10  11  12  13  23  28  29  30  31  32 0
 6-311+G(2d,p)
 ****
 33  34 0
 6-311+G(2d,p)
 ****
 1  2  14  15  16  17  18  19  20  21  22  24  25  26  27 0
 3-21G
 ****
 35  36  37  38  39  40  41  42  43  44  45 0
 3-21G
 ****


