%nproc=1
%NoSave
%Mem=1900MB
#P OB98/GEN NMR

erre ene a

0 1
  C       49.000      43.852     -59.313
  O       49.798      43.998     -58.142
  P       51.361      44.297     -58.342
  C       51.330      46.423     -56.803
  O       51.867      45.141     -57.078
  C       51.550      46.813     -55.331
  O       50.690      45.981     -54.504
  C       52.961      46.587     -54.798
  O       53.131      47.360     -53.604
  C       52.928      45.114     -54.445
  O       53.985      44.762     -53.555
  C       51.495      44.939     -53.888
  N       50.909      43.612     -54.169
  C       51.225      42.554     -53.318
  O       51.967      42.654     -52.341
  N       50.684      41.337     -53.642
  C       49.846      41.087     -54.688
  O       49.461      39.960     -54.983
  C       49.434      42.260     -55.470
  C       49.982      43.446     -55.187
  O       51.385      45.348     -59.552
  O       52.176      43.082     -58.637
  H       53.960      43.778     -53.471
  H       51.689      44.909     -60.371
  H       50.961      40.547     -53.074
  H       48.715      42.112     -56.264
  H       49.702      44.321     -55.769
  H       51.475      45.081     -52.802
  H       53.052      44.514     -55.352
  H       53.758      46.819     -55.509
  H       51.242      47.851     -55.183
  H       50.265      46.441     -57.051
  H       51.812      47.167     -57.451
  P       54.194      48.557     -53.628
  C       52.884      50.218     -52.166
  O       54.002      49.353     -52.248
  O       54.207      49.395     -54.863
  O       55.593      47.802     -53.404
  H       56.324      48.377     -53.692
  H       52.564      50.279     -51.122
  H       52.049      49.853     -52.772
  H       53.171      51.216     -52.510
  H       47.986      43.657     -59.032
  H       49.371      43.036     -59.898
  H       49.044      44.753     -59.889

 3  4  5  6  7  8  9  10  11  12  13  23  28  29  30  31  32 0
 6-311+G(2d,p)
 ****
 33  34 0
 6-311+G(2d,p)
 ****
 1  2  14  15  16  17  18  19  20  21  22  24  25  26  27 0
 3-21G
 ****
 35  36  37  38  39  40  41  42  43  44  45 0
 3-21G
 ****


