%nproc=1
%NoSave
%Mem=1900MB
#P OB98/GEN NMR

erre ene a

0 1
  C      -22.263    -106.762    -294.099
  O      -23.330    -106.009    -293.556
  H      -22.670    -107.483    -294.815
  H      -21.740    -107.304    -293.305
  H      -21.562    -106.100    -294.624
  P      -22.940    -104.903    -292.460
  C      -23.896    -105.654    -290.167
  O      -22.794    -105.690    -291.063
  C      -25.110    -106.339    -290.789
  O      -24.734    -107.595    -291.401
  C      -26.231    -106.651    -289.807
  O      -27.055    -105.518    -289.580
  C      -26.961    -107.772    -290.530
  O      -27.852    -107.256    -291.544
  C      -25.803    -108.551    -291.168
  N      -26.091    -113.544    -290.405
  C      -26.685    -112.749    -291.369
  N      -27.526    -113.381    -292.227
  N      -26.484    -111.465    -291.483
  C      -25.649    -110.970    -290.536
  C      -24.985    -111.653    -289.540
  C      -25.196    -113.083    -289.451
  O      -24.642    -113.849    -288.660
  N      -24.214    -110.801    -288.787
  C      -24.436    -109.609    -289.300
  N      -25.315    -109.654    -290.355
  O      -24.296    -104.069    -292.271
  O      -21.796    -104.016    -292.823
  H      -28.242    -107.996    -292.035
  H      -24.075    -103.147    -292.042
  H      -26.269    -114.531    -290.383
  H      -23.988    -108.688    -288.953
  H      -26.078    -108.976    -292.145
  H      -27.578    -108.368    -289.849
  H      -27.965    -114.262    -291.994
  H      -25.823    -107.039    -288.860
  H      -27.982    -112.800    -292.922
  H      -25.482    -105.687    -291.595
  H      -24.146    -104.612    -289.947
  H      -23.616    -106.161    -289.234
  P      -28.287    -105.680    -288.566
  C      -30.628    -105.806    -289.703
  O      -29.428    -106.486    -289.364
  O      -28.884    -104.194    -288.481
  O      -27.925    -106.219    -287.224
  H      -29.464    -104.113    -287.696
  H      -31.280    -106.473    -290.227
  H      -30.399    -104.968    -290.327
  H      -31.109    -105.465    -288.810

 6  7  8  9  10  11  12  13  14  15  26  29  33  34 0
 6-311+G(2d,p)
 ****
 36  38  39  40  41 0
 6-311+G(2d,p)
 ****
 1  2  3  4  5  16  17  18  19  20  21  22  23  24  25 0
 3-21G
 ****
 27  28  30  31  32  35  37  42  43  44  45  46  47 0
 3-21G
 ****
 48  49 0
 3-21G
 ****


