%nproc=1
%NoSave
%Mem=1900MB
#P OB98/GEN NMR

erre ene a

0 1
  C     -307.095     240.850    -186.439
  O     -306.274     240.046    -185.587
  P     -305.528     240.799    -184.385
  C     -306.318     239.451    -182.311
  O     -306.427     240.650    -183.067
  C     -307.702     238.839    -182.095
  O     -308.318     238.454    -183.343
  C     -307.677     237.571    -181.252
  O     -307.482     237.873    -179.881
  C     -309.044     236.981    -181.583
  O     -310.073     237.640    -180.826
  C     -309.192     237.333    -183.072
  N     -311.068     233.837    -186.302
  C     -311.666     234.799    -185.566
  N     -311.096     235.689    -184.727
  C     -309.764     235.526    -184.695
  C     -309.014     234.593    -185.393
  C     -309.723     233.713    -186.227
  N     -309.115     232.723    -186.966
  N     -307.673     234.729    -185.101
  C     -307.617     235.713    -184.225
  N     -308.853     236.234    -183.958
  O     -305.672     242.345    -184.772
  O     -304.097     240.402    -184.225
  H     -310.882     237.093    -180.897
  H     -304.809     242.700    -185.054
  H     -312.747     234.862    -185.662
  H     -306.710     236.079    -183.759
  H     -310.212     237.646    -183.324
  H     -309.113     235.911    -181.367
  H     -306.884     236.899    -181.602
  H     -308.337     239.594    -181.612
  H     -305.848     239.653    -181.346
  H     -309.703     232.085    -187.477
  H     -308.124     232.566    -186.850
  H     -305.658     238.758    -182.843
  P     -305.991     238.211    -179.397
  C     -306.416     240.551    -178.426
  O     -305.906     239.812    -179.521
  O     -305.127     237.718    -180.645
  O     -305.614     237.643    -178.072
  H     -305.510     238.013    -181.491
  H     -306.266     241.615    -178.625
  H     -305.886     240.281    -177.509
  H     -307.485     240.360    -178.311
  H     -307.534     240.234    -187.196
  H     -306.497     241.608    -186.899
  H     -307.869     241.309    -185.859

 3  4  5  6  7  8  9  10  11  12  22  25  29  30  31  32 0
 6-311+G(2d,p)
 ****
 33  36  37 0
 6-311+G(2d,p)
 ****
 1  2  13  14  15  16  17  18  19  20  21  23  24  26 0
 3-21G
 ****
 27  28  34  35  38  39  40  41  42  43  44  45  46  47  48 0
 3-21G
 ****


