%nproc=1
%NoSave
%Mem=1900MB
#P OB98/GEN NMR

erre ene a

0 1
  C      -98.587     -51.108     -39.276
  O      -97.569     -51.137     -40.255
  H      -99.259     -51.953     -39.447
  H      -99.165     -50.183     -39.346
  H      -98.155     -51.205     -38.277
  P      -96.514     -49.927     -40.292
  C      -97.606     -49.117     -42.498
  O      -97.247     -48.792     -41.164
  C      -98.127     -47.878     -43.222
  O      -99.295     -47.346     -42.564
  C      -97.148     -46.710     -43.279
  O      -96.090     -46.904     -44.202
  C      -98.091     -45.595     -43.700
  O      -98.387     -45.719     -45.103
  C      -99.339     -45.918     -42.841
  N      -99.385     -45.156     -41.594
  C     -100.054     -43.926     -41.636
  O     -100.567     -43.527     -42.680
  N     -100.092     -43.155     -40.498
  C      -99.500     -43.566     -39.421
  N      -99.528     -42.743     -38.336
  C      -98.800     -44.862     -39.328
  C      -98.776     -45.596     -40.439
  O      -95.127     -50.273     -40.729
  O      -96.580     -49.296     -38.823
  H      -99.185     -45.188     -45.273
  H      -95.935     -48.549     -38.791
  H      -98.316     -45.153     -38.409
  H      -98.267     -46.552     -40.455
  H     -100.259     -45.727     -43.406
  H      -97.677     -44.595     -43.541
  H      -96.757     -46.479     -42.282
  H      -98.440     -48.190     -44.227
  H      -99.979     -41.845     -38.450
  H      -98.369     -49.901     -42.465
  H      -98.871     -42.857     -37.571
  H      -96.734     -49.493     -43.042
  P      -94.591     -46.615     -43.701
  C      -94.933     -44.034     -43.803
  O      -94.607     -45.166     -43.012
  O      -93.798     -46.377     -45.068
  O      -93.974     -47.685     -42.856
  H      -93.380     -47.202     -45.381
  H      -94.898     -43.153     -43.196
  H      -95.917     -44.152     -44.205
  H      -94.229     -43.944     -44.604

 6  7  8  9  10  11  12  13  14  15  16  26  30  31  32  33  35 0
 6-311+G(2d,p)
 ****
 37  38 0
 6-311+G(2d,p)
 ****
 1  2  3  4  5  17  18  19  20  21  22  23  24  25 0
 3-21G
 ****
 27  28  29  34  36  39  40  41  42  43  44  45  46 0
 3-21G
 ****


