%nproc=1
%NoSave
%Mem=1900MB
#P OB98/GEN NMR

erre ene a

0 1
  C      449.327     393.952    1204.346
  O      450.650     393.670    1204.783
  P      450.940     392.534    1205.871
  C      451.778     390.852    1204.116
  O      450.771     391.141    1205.089
  C      452.620     389.667    1204.596
  O      453.181     389.998    1205.901
  C      451.879     388.347    1204.800
  O      451.714     387.573    1203.636
  C      452.823     387.620    1205.763
  O      453.937     387.080    1205.004
  C      453.310     388.773    1206.676
  N      452.784     387.022    1211.444
  C      453.677     386.744    1210.469
  N      453.750     387.234    1209.211
  C      452.765     388.139    1209.021
  C      451.782     388.523    1209.911
  C      451.814     387.917    1211.177
  N      450.908     388.228    1212.170
  N      450.936     389.448    1209.336
  C      451.418     389.643    1208.117
  N      452.532     388.875    1207.895
  O      450.146     392.669    1207.131
  O      452.517     392.618    1206.136
  H      453.560     386.464    1204.349
  H      452.750     392.154    1206.952
  H      454.462     386.036    1210.735
  H      451.001     390.307    1207.376
  H      454.367     388.672    1206.936
  H      452.354     386.785    1206.287
  H      450.916     388.503    1205.316
  H      453.456     389.526    1203.907
  H      452.421     391.732    1204.016
  H      451.066     387.845    1213.080
  H      450.282     389.002    1212.030
  H      451.319     390.628    1203.160
  P      450.679     386.345    1203.696
  C      448.961     387.890    1202.451
  O      449.216     386.989    1203.500
  O      450.826     385.464    1204.893
  O      450.920     385.584    1202.317
  H      450.657     386.077    1201.502
  H      447.892     388.086    1202.407
  H      449.277     387.456    1201.485
  H      449.493     388.830    1202.629
  H      449.351     394.739    1203.622
  H      448.732     394.254    1205.182
  H      448.902     393.074    1203.905

 3  4  5  6  7  8  9  10  11  12  22  25  29  30  31  32 0
 6-311+G(2d,p)
 ****
 33  36  37 0
 6-311+G(2d,p)
 ****
 1  2  13  14  15  16  17  18  19  20  21  23  24  26 0
 3-21G
 ****
 27  28  34  35  38  39  40  41  42  43  44  45  46  47  48 0
 3-21G
 ****


