%nproc=1
%NoSave
%Mem=1900MB
#P OB98/GEN NMR

erre ene a

0 1
  C     -224.431     576.510    -878.404
  O     -225.828     576.280    -878.331
  H     -224.064     576.719    -877.392
  H     -224.225     577.381    -879.038
  H     -223.909     575.635    -878.787
  P     -226.607     575.850    -879.665
  C     -227.097     573.512    -878.706
  O     -226.503     574.257    -879.768
  C     -226.700     572.037    -878.785
  O     -225.279     571.939    -879.075
  C     -226.980     571.249    -877.496
  O     -227.431     569.939    -877.841
  C     -225.603     571.175    -876.835
  O     -225.478     570.025    -875.984
  C     -224.682     571.112    -878.059
  N     -219.899     571.321    -879.680
  C     -221.028     570.827    -880.299
  N     -220.853     570.267    -881.513
  N     -222.224     570.850    -879.762
  C     -222.245     571.447    -878.534
  C     -221.189     571.987    -877.827
  C     -219.874     571.935    -878.419
  O     -218.835     572.347    -877.925
  N     -221.614     572.468    -876.610
  C     -222.921     572.226    -876.593
  N     -223.340     571.597    -877.733
  O     -226.204     576.578    -880.912
  O     -228.154     576.098    -879.309
  H     -224.590     570.073    -875.564
  H     -228.466     576.939    -879.689
  H     -218.995     571.260    -880.137
  H     -223.586     572.477    -875.783
  H     -224.560     570.102    -878.458
  H     -225.429     572.069    -876.244
  H     -219.970     570.221    -882.002
  H     -227.715     571.747    -876.840
  H     -221.684     569.912    -882.006
  H     -227.232     571.584    -879.634
  H     -228.186     573.611    -878.786
  H     -226.773     573.933    -877.734
  P     -228.952     569.736    -878.290
  C     -228.189     569.401    -880.744
  O     -229.070     570.116    -879.856
  O     -229.981     570.378    -877.420
  O     -229.110     568.139    -878.306
  H     -230.039     567.917    -878.094
  H     -228.352     569.730    -881.749
  H     -228.388     568.352    -880.676
  H     -227.173     569.590    -880.467

 6  7  8  9  10  11  12  13  14  15  26  29  33  34 0
 6-311+G(2d,p)
 ****
 36  38  39  40  41 0
 6-311+G(2d,p)
 ****
 1  2  3  4  5  16  17  18  19  20  21  22  23  24  25 0
 3-21G
 ****
 27  28  30  31  32  35  37  42  43  44  45  46  47 0
 3-21G
 ****
 48  49 0
 3-21G
 ****


