%nproc=1
%NoSave
%Mem=1900MB
#P OB98/GEN NMR

erre ene a

0 1
  C      -24.394     113.669     -98.300
  O      -24.519     114.415     -99.493
  H      -23.904     114.294     -97.548
  H      -23.777     112.783     -98.471
  H      -25.375     113.371     -97.922
  P      -25.353     113.789    -100.710
  C      -23.787     113.072    -102.628
  O      -24.413     112.694    -101.407
  C      -22.509     113.854    -102.335
  O      -21.752     113.193    -101.296
  C      -21.562     113.953    -103.525
  O      -22.020     114.892    -104.477
  C      -20.264     114.321    -102.826
  O      -20.207     115.726    -102.549
  C      -20.360     113.509    -101.515
  N      -19.545     112.295    -101.563
  C      -18.168     112.482    -101.617
  O      -17.632     113.588    -101.618
  N      -17.417     111.343    -101.736
  C      -17.907     110.084    -101.942
  O      -17.210     109.138    -102.289
  C      -19.365     109.940    -101.812
  C      -20.107     111.036    -101.643
  O      -25.976     114.775    -101.640
  O      -26.464     112.891     -99.981
  H      -27.316     113.368     -99.987
  H      -19.345     115.877    -102.110
  H      -16.417     111.472    -101.819
  H      -19.788     108.945    -101.896
  H      -21.189     110.959    -101.578
  H      -20.032     114.117    -100.663
  H      -19.395     114.066    -103.435
  H      -21.448     112.967    -103.990
  H      -22.788     114.851    -101.974
  H      -24.478     113.704    -103.195
  H      -23.567     112.171    -103.210
  P      -21.506     114.822    -105.993
  C      -19.974     116.602    -107.039
  O      -20.085     115.560    -106.076
  O      -22.497     115.255    -107.022
  O      -21.115     113.281    -106.199
  H      -21.538     112.956    -107.016
  H      -18.989     117.017    -107.003
  H      -20.691     117.366    -106.822
  H      -20.159     116.206    -108.016

 6  7  8  9  10  11  12  13  14  15  16  27  31  32  33  34  35 0
 6-311+G(2d,p)
 ****
 36  37 0
 6-311+G(2d,p)
 ****
 1  2  3  4  5  17  18  19  20  21  22  23  24  25 0
 3-21G
 ****
 26  28  29  30  38  39  40  41  42  43  44  45 0
 3-21G
 ****


