%nproc=1
%NoSave
%Mem=1900MB
#P OB98/GEN NMR

erre ene a

0 1
  C     -468.997     431.593     -33.659
  O     -470.389     431.363     -33.745
  H     -468.831     432.629     -33.359
  H     -468.524     431.429     -34.631
  H     -468.552     430.930     -32.912
  P     -470.854     429.922     -34.275
  C     -473.207     429.917     -33.174
  O     -471.905     429.348     -33.210
  C     -473.293     430.917     -32.024
  O     -472.551     432.115     -32.361
  C     -474.703     431.393     -31.721
  O     -475.448     430.456     -30.953
  C     -474.420     432.669     -30.945
  O     -474.175     432.407     -29.559
  C     -473.157     433.206     -31.641
  N     -473.460     434.337     -32.513
  C     -473.097     435.592     -32.024
  O     -472.558     435.760     -30.933
  N     -473.418     436.656     -32.821
  C     -474.092     436.597     -34.006
  O     -474.398     437.596     -34.642
  C     -474.464     435.247     -34.465
  C     -474.141     434.195     -33.709
  O     -469.552     429.013     -34.056
  O     -471.323     429.895     -35.694
  H     -469.129     428.829     -34.915
  H     -473.646     433.165     -29.229
  H     -473.166     437.575     -32.488
  H     -475.002     435.162     -35.400
  H     -474.412     433.196     -34.018
  H     -472.422     433.538     -30.897
  H     -475.262     433.357     -31.001
  H     -475.227     431.650     -32.649
  H     -472.833     430.466     -31.131
  H     -473.949     429.130     -33.010
  H     -473.414     430.400     -34.130
  P     -476.738     429.786     -31.645
  C     -476.768     427.389     -30.558
  O     -476.445     428.210     -31.672
  O     -476.539     430.263     -33.158
  O     -478.022     430.199     -31.008
  H     -475.600     430.417     -33.371
  H     -476.497     426.376     -30.771
  H     -477.819     427.444     -30.367
  H     -476.231     427.728     -29.697

 6  7  8  9  10  11  12  13  14  15  16  27  31  32  33  34  35 0
 6-311+G(2d,p)
 ****
 36  37 0
 6-311+G(2d,p)
 ****
 1  2  3  4  5  17  18  19  20  21  22  23  24  25 0
 3-21G
 ****
 26  28  29  30  38  39  40  41  42  43  44  45 0
 3-21G
 ****


