%nproc=1
%NoSave
%Mem=1900MB
#P OB98/GEN NMR

erre ene a

0 1
  C      212.309    -265.040     -54.646
  O      210.974    -264.542     -54.472
  P      210.157    -265.051     -53.187
  C      211.073    -263.490     -51.280
  O      210.036    -263.776     -52.220
  C      210.765    -262.191     -50.544
  O      210.962    -261.049     -51.420
  C      209.327    -262.075     -50.039
  O      209.107    -262.893     -48.905
  C      209.234    -260.573     -49.782
  O      209.830    -260.239     -48.523
  C      210.088    -260.001     -50.943
  N      209.286    -259.440     -52.023
  C      209.317    -258.052     -52.158
  O      209.972    -257.319     -51.402
  N      208.573    -257.524     -53.178
  C      207.783    -258.231     -54.031
  O      207.136    -257.706     -54.943
  C      207.735    -259.697     -53.819
  C      208.479    -260.222     -52.839
  O      211.248    -265.988     -52.475
  O      208.871    -265.726     -53.538
  H      212.160    -265.648     -52.577
  H      209.385    -260.801     -47.854
  H      208.592    -256.528     -53.297
  H      207.103    -260.282     -54.468
  H      208.459    -261.294     -52.656
  H      210.745    -259.201     -50.564
  H      208.193    -260.218     -49.768
  H      208.627    -262.357     -50.845
  H      211.467    -262.096     -49.698
  H      212.033    -263.398     -51.797
  H      211.150    -264.332     -50.584
  P      207.783    -263.803     -48.907
  C      208.808    -266.200     -48.633
  O      208.135    -265.110     -48.047
  O      207.769    -264.325     -50.422
  O      206.550    -263.074     -48.501
  H      208.652    -264.619     -50.726
  H      209.253    -266.815     -47.844
  H      209.604    -265.859     -49.303
  H      208.098    -266.816     -49.196
  H      212.733    -264.622     -55.535
  H      212.284    -266.106     -54.730
  H      212.906    -264.763     -53.802

 3  4  5  6  7  8  9  10  11  12  13  24  28  29  30  31  32 0
 6-311+G(2d,p)
 ****
 33  34 0
 6-311+G(2d,p)
 ****
 1  2  14  15  16  17  18  19  20  21  22  23  25  26  27 0
 3-21G
 ****
 35  36  37  38  39  40  41  42  43  44  45 0
 3-21G
 ****


