%nproc=1
%NoSave
%Mem=1900MB
#P OB98/GEN NMR

erre ene a

0 1
  C       10.280     457.561      72.919
  O       10.155     456.161      73.124
  P       10.678     455.478      74.472
  C       13.226     455.543      73.836
  O       12.082     454.787      74.173
  C       14.280     454.608      73.233
  O       14.966     453.889      74.281
  C       13.651     453.584      72.294
  O       13.704     454.035      70.948
  C       14.489     452.344      72.545
  O       15.717     452.405      71.796
  C       14.778     452.466      74.058
  N       13.749     451.989      75.006
  C       13.609     450.622      75.237
  O       14.317     449.766      74.720
  N       12.589     450.266      76.082
  C       11.752     451.128      76.732
  O       10.708     450.798      77.282
  C       12.124     452.544      76.660
  C       13.073     452.906      75.798
  O        9.683     454.241      74.656
  O       10.698     456.367      75.674
  H       15.478     452.579      70.866
  H        8.980     454.458      75.296
  H       12.391     449.272      76.144
  H       11.576     453.252      77.270
  H       13.339     453.954      75.699
  H       15.716     451.961      74.320
  H       13.975     451.446      72.209
  H       12.617     453.374      72.595
  H       15.025     455.211      72.696
  H       13.620     456.041      74.728
  H       12.959     456.324      73.118
  P       12.345     454.264      70.136
  C       11.882     451.772      69.777
  O       12.217     452.998      69.164
  O       12.204     455.597      69.480
  O       11.212     454.025      71.246
  H       10.906     454.885      71.601
  H       11.653     451.038      68.997
  H       11.007     451.887      70.422
  H       12.730     451.406      70.364
  H        9.874     457.819      71.963
  H       11.314     457.836      72.953
  H        9.747     458.083      73.686

 3  4  5  6  7  8  9  10  11  12  13  23  28  29  30  31  32 0
 6-311+G(2d,p)
 ****
 33  34 0
 6-311+G(2d,p)
 ****
 1  2  14  15  16  17  18  19  20  21  22  24  25  26  27 0
 3-21G
 ****
 35  36  37  38  39  40  41  42  43  44  45 0
 3-21G
 ****


