%nproc=1
%NoSave
%Mem=1900MB
#P OB98/GEN NMR

erre ene a

0 1
  C      323.569     838.691    -383.020
  O      323.533     837.495    -383.771
  H      324.583     839.090    -383.052
  H      323.304     838.488    -381.979
  H      322.884     839.434    -383.440
  P      322.113     836.785    -384.025
  C      323.266     834.621    -383.229
  O      322.398     835.216    -384.189
  C      323.823     833.309    -383.778
  O      322.750     832.391    -384.067
  C      324.587     833.471    -385.097
  O      325.865     834.032    -384.892
  C      324.581     832.036    -385.597
  O      325.626     831.270    -384.992
  C      323.193     831.535    -385.146
  N      322.228     831.525    -386.243
  C      322.335     830.469    -387.143
  O      323.185     829.576    -387.058
  N      321.476     830.509    -388.214
  C      320.647     831.547    -388.528
  O      320.078     831.654    -389.612
  C      320.524     832.599    -387.504
  C      321.314     832.542    -386.436
  O      321.274     837.395    -385.103
  O      321.390     836.869    -382.599
  H      320.734     837.593    -382.612
  H      325.578     830.379    -385.398
  H      321.583     829.770    -388.898
  H      319.816     833.401    -387.679
  H      321.270     833.324    -385.674
  H      323.268     830.522    -384.725
  H      324.731     831.993    -386.689
  H      323.999     834.095    -385.786
  H      324.464     832.856    -383.009
  H      322.694     834.416    -382.313
  H      324.072     835.325    -382.996
  P      326.402     835.189    -385.860
  C      328.650     833.934    -385.689
  O      328.007     835.205    -385.785
  O      325.752     836.522    -385.687
  O      326.127     834.614    -387.338
  H      325.667     835.293    -387.859
  H      329.710     834.073    -385.646
  H      328.402     833.343    -386.546
  H      328.320     833.433    -384.803

 6  7  8  9  10  11  12  13  14  15  16  27  31  32  33  34  35 0
 6-311+G(2d,p)
 ****
 36  37 0
 6-311+G(2d,p)
 ****
 1  2  3  4  5  17  18  19  20  21  22  23  24  25 0
 3-21G
 ****
 26  28  29  30  38  39  40  41  42  43  44  45 0
 3-21G
 ****


