%nproc=1
%NoSave
%Mem=1900MB
#P OB98/GEN NMR

erre ene a

0 1
  C      449.718     726.154     187.324
  O      449.338     726.456     188.654
  H      449.282     725.190     187.047
  H      450.808     726.078     187.247
  H      449.345     726.921     186.645
  P      449.959     727.785     189.304
  C      448.320     727.615     191.318
  O      449.675     727.714     190.883
  C      448.280     727.468     192.835
  O      448.794     726.164     193.222
  C      449.159     728.466     193.583
  O      448.551     729.747     193.687
  C      449.306     727.792     194.927
  O      448.195     728.066     195.796
  C      449.347     726.288     194.540
  N      450.705     725.750     194.618
  C      451.237     725.631     195.911
  O      450.620     725.963     196.933
  N      452.530     725.168     195.981
  C      453.326     724.854     194.919
  O      454.489     724.486     195.060
  C      452.721     725.011     193.588
  C      451.463     725.448     193.502
  O      448.980     728.936     188.794
  O      451.382     728.052     188.933
  H      449.419     729.460     188.099
  H      448.383     727.579     196.630
  H      452.905     725.070     196.902
  H      453.333     724.784     192.731
  H      450.995     725.588     192.530
  H      448.708     725.709     195.212
  H      450.210     728.118     195.447
  H      450.148     728.535     193.104
  H      447.242     727.548     193.175
  H      447.850     726.737     190.869
  H      447.783     728.512     190.998
  P      449.379     731.015     193.138
  C      447.684     732.613     194.381
  O      449.019     732.229     194.140
  O      448.564     731.339     191.802
  O      450.835     730.735     192.946
  H      447.639     731.049     191.865
  H      447.667     733.431     195.070
  H      447.144     731.787     194.795
  H      447.227     732.912     193.461

 6  7  8  9  10  11  12  13  14  15  16  27  31  32  33  34  35 0
 6-311+G(2d,p)
 ****
 36  37 0
 6-311+G(2d,p)
 ****
 1  2  3  4  5  17  18  19  20  21  22  23  24  25 0
 3-21G
 ****
 26  28  29  30  38  39  40  41  42  43  44  45 0
 3-21G
 ****


