%nproc=1
%NoSave
%Mem=1900MB
#P OB98/GEN NMR

erre ene a

0 1
  C     2042.015      -3.022     131.508
  O     2041.210      -4.110     131.904
  H     2043.028      -3.380     131.328
  H     2042.045      -2.270     132.306
  H     2041.632      -2.571     130.592
  P     2039.630      -3.861     132.002
  C     2039.070      -5.340     129.924
  O     2039.045      -4.039     130.516
  C     2040.330      -5.491     129.059
  O     2041.506      -5.321     129.902
  C     2040.453      -6.864     128.375
  O     2041.038      -6.683     127.095
  C     2041.422      -7.593     129.278
  O     2042.106      -8.664     128.625
  C     2042.364      -6.454     129.688
  N     2043.125      -6.767     130.901
  C     2044.520      -6.897     130.754
  O     2045.128      -6.687     129.727
  N     2045.175      -7.286     131.882
  C     2044.614      -7.574     133.096
  O     2045.277      -7.942     134.061
  C     2043.172      -7.427     133.179
  C     2042.500      -7.040     132.098
  O     2039.533      -2.283     132.250
  O     2038.911      -4.655     133.045
  H     2039.544      -2.090     133.202
  H     2042.652      -9.130     129.295
  H     2046.183      -7.387     131.789
  H     2042.688      -7.658     134.128
  H     2041.413      -6.946     132.119
  H     2043.037      -6.206     128.872
  H     2040.907      -8.017     130.156
  H     2039.494      -7.404     128.282
  H     2040.351      -4.695     128.315
  H     2038.181      -5.474     129.297
  H     2039.062      -6.090     130.718
  P     2040.048      -6.313     125.885
  C     2040.734      -3.812     125.490
  O     2039.787      -4.731     126.017
  O     2038.676      -6.986     126.376
  O     2040.557      -6.777     124.559
  H     2038.563      -6.951     127.339
  H     2040.398      -2.812     125.668
  H     2040.838      -3.972     124.437
  H     2041.680      -3.960     125.968

 6  7  8  9  10  11  12  13  14  15  16  27  31  32  33  34  35 0
 6-311+G(2d,p)
 ****
 36  37 0
 6-311+G(2d,p)
 ****
 1  2  3  4  5  17  18  19  20  21  22  23  24  25 0
 3-21G
 ****
 26  28  29  30  38  39  40  41  42  43  44  45 0
 3-21G
 ****


