%nproc=1
%NoSave
%Mem=1900MB
#P OB98/GEN NMR

erre ene a

0 1
  C     -238.033     180.839    -524.496
  O     -239.271     180.298    -524.919
  P     -240.388     181.245    -525.568
  C     -238.753     181.574    -527.542
  O     -239.597     182.206    -526.580
  C     -239.374     181.618    -528.937
  O     -240.480     180.694    -529.036
  C     -239.945     182.980    -529.312
  O     -238.892     183.866    -529.684
  C     -240.874     182.601    -530.454
  O     -240.163     182.472    -531.693
  C     -241.421     181.239    -529.977
  N     -242.763     181.333    -529.422
  C     -243.812     181.260    -530.349
  O     -243.577     181.150    -531.547
  N     -245.106     181.343    -529.889
  C     -245.324     181.531    -528.609
  N     -246.632     181.618    -528.222
  C     -244.248     181.646    -527.623
  C     -243.000     181.542    -528.088
  O     -241.288     181.933    -524.598
  O     -241.167     180.249    -526.565
  H     -239.447     181.829    -531.524
  H     -241.756     179.636    -526.064
  H     -244.475     181.814    -526.574
  H     -242.146     181.630    -527.425
  H     -241.452     180.526    -530.832
  H     -241.660     183.357    -530.612
  H     -240.515     183.392    -528.480
  H     -238.607     181.311    -529.660
  H     -247.344     181.560    -528.940
  H     -238.622     180.522    -527.235
  H     -246.907     181.797    -527.265
  H     -237.770     182.055    -527.537
  P     -239.199     185.435    -529.866
  C     -239.221     185.889    -527.334
  O     -239.949     185.947    -528.542
  O     -239.854     185.810    -531.158
  O     -237.757     186.113    -529.747
  H     -237.672     186.783    -530.452
  H     -239.677     186.546    -526.608
  H     -238.176     186.207    -527.498
  H     -239.220     184.861    -526.949
  H     -237.422     180.059    -524.092
  H     -238.206     181.581    -523.745
  H     -237.535     181.286    -525.331

 3  4  5  6  7  8  9  10  11  12  13  23  27  28  29  30  32 0
 6-311+G(2d,p)
 ****
 34  35 0
 6-311+G(2d,p)
 ****
 1  2  14  15  16  17  18  19  20  21  22  24  25  26 0
 3-21G
 ****
 31  33  36  37  38  39  40  41  42  43  44  45  46 0
 3-21G
 ****


