%nproc=1
%NoSave
%Mem=1900MB
#P OB98/GEN NMR

erre ene a

0 1
  C     -121.534     -48.546     -98.097
  O     -121.173     -48.843     -96.765
  H     -120.685     -48.768     -98.750
  H     -121.780     -47.486     -98.189
  H     -122.387     -49.155     -98.411
  P     -122.345     -48.784     -95.669
  C     -124.495     -47.348     -95.433
  O     -123.186     -47.451     -95.974
  C     -125.150     -46.045     -95.882
  O     -124.473     -44.912     -95.294
  C     -125.128     -45.819     -97.390
  O     -126.185     -46.508     -98.044
  C     -125.334     -44.315     -97.450
  O     -126.723     -44.004     -97.218
  C     -124.477     -43.833     -96.272
  N     -121.260     -40.097     -97.457
  C     -122.611     -40.047     -97.163
  N     -123.190     -38.829     -97.202
  N     -123.331     -41.097     -96.865
  C     -122.622     -42.252     -96.877
  C     -121.283     -42.429     -97.147
  C     -120.498     -41.259     -97.469
  O     -119.293     -41.244     -97.711
  N     -120.922     -43.746     -97.050
  C     -122.042     -44.369     -96.741
  N     -123.107     -43.507     -96.630
  O     -121.568     -48.425     -94.313
  O     -123.147     -50.032     -95.521
  H     -127.007     -44.540     -96.456
  H     -122.002     -48.890     -93.570
  H     -120.755     -39.260     -97.689
  H     -122.137     -45.434     -96.585
  H     -124.900     -42.948     -95.783
  H     -125.068     -43.892     -98.419
  H     -122.703     -37.986     -97.472
  H     -124.151     -46.071     -97.821
  H     -124.170     -38.760     -96.960
  H     -126.183     -46.040     -95.506
  H     -124.435     -47.364     -94.339
  H     -125.089     -48.204     -95.769
  P     -125.902     -47.075     -99.523
  C     -125.238     -45.900    -101.743
  O     -125.888     -45.788    -100.481
  O     -127.278     -47.801     -99.898
  O     -124.731     -47.991     -99.633
  H     -127.121     -48.477    -100.585
  H     -125.310     -44.969    -102.265
  H     -125.708     -46.670    -102.319
  H     -124.207     -46.145    -101.593

 6  7  8  9  10  11  12  13  14  15  26  29  33  34 0
 6-311+G(2d,p)
 ****
 36  38  39  40  41 0
 6-311+G(2d,p)
 ****
 1  2  3  4  5  16  17  18  19  20  21  22  23  24  25 0
 3-21G
 ****
 27  28  30  31  32  35  37  42  43  44  45  46  47 0
 3-21G
 ****
 48  49 0
 3-21G
 ****


