%nproc=1
%NoSave
%Mem=1900MB
#P OB98/GEN NMR

erre ene a

0 1
  C       18.681       2.054    -127.308
  O       19.825       2.032    -126.474
  P       20.327       3.377    -125.767
  C       22.075       4.161    -127.529
  O       21.836       3.622    -126.247
  C       23.578       4.305    -127.798
  O       23.739       5.042    -129.035
  C       24.345       5.093    -126.742
  O       25.738       4.802    -126.879
  C       24.081       6.521    -127.166
  O       25.037       7.430    -126.627
  C       24.066       6.414    -128.712
  N       23.076       7.330    -129.308
  C       23.394       8.685    -129.310
  O       24.474       9.120    -128.912
  N       22.396       9.533    -129.704
  C       21.129       9.156    -130.040
  O       20.177       9.926    -130.089
  C       20.930       7.713    -130.250
  C       21.891       6.875    -129.855
  O       20.479       2.937    -124.237
  O       19.416       4.546    -125.921
  H       25.021       7.314    -125.649
  H       19.681       3.184    -123.734
  H       22.578      10.520    -129.567
  H       19.986       7.383    -130.661
  H       21.752       5.801    -129.949
  H       25.047       6.652    -129.139
  H       23.093       6.826    -126.801
  H       24.018       4.906    -125.714
  H       24.020       3.312    -127.936
  H       21.573       5.129    -127.613
  H       21.636       3.518    -128.299
  P       26.578       4.509    -125.545
  C       28.002       6.590    -126.034
  O       28.009       5.204    -125.752
  O       26.614       3.088    -125.093
  O       25.877       5.461    -124.461
  H       26.100       5.156    -123.563
  H       28.926       7.031    -125.651
  H       27.149       7.090    -125.566
  H       27.960       6.736    -127.116
  H       18.499       1.071    -127.689
  H       18.846       2.728    -128.123
  H       17.833       2.380    -126.742

 3  4  5  6  7  8  9  10  11  12  13  23  28  29  30  31  32 0
 6-311+G(2d,p)
 ****
 33  34 0
 6-311+G(2d,p)
 ****
 1  2  14  15  16  17  18  19  20  21  22  24  25  26  27 0
 3-21G
 ****
 35  36  37  38  39  40  41  42  43  44  45 0
 3-21G
 ****


