%nproc=1
%NoSave
%Mem=1900MB
#P OB98/GEN NMR

erre ene a

0 1
  C      572.927    -891.690     467.075
  O      571.793    -892.310     466.494
  P      571.434    -891.960     464.948
  C      572.067    -894.210     463.763
  O      572.443    -892.870     464.076
  C      572.988    -894.810     462.689
  O      572.932    -893.980     461.485
  C      574.468    -894.910     463.123
  O      574.978    -896.130     462.534
  C      575.094    -893.700     462.460
  O      576.508    -893.880     462.289
  C      574.305    -893.660     461.144
  N      574.374    -892.340     460.480
  C      575.515    -892.100     459.735
  O      576.478    -892.870     459.672
  N      575.567    -890.890     459.074
  C      574.619    -889.890     459.180
  O      574.692    -888.830     458.589
  C      573.474    -890.170     460.086
  C      573.439    -891.370     460.696
  O      572.060    -890.500     464.834
  O      569.984    -892.080     464.642
  H      572.891    -890.360     465.344
  H      576.662    -894.520     461.572
  H      576.358    -890.700     458.509
  H      572.770    -889.390     460.256
  H      572.617    -891.590     461.386
  H      574.660    -894.410     460.442
  H      574.919    -892.790     463.068
  H      574.593    -894.920     464.212
  H      572.612    -895.810     462.440
  H      571.020    -894.240     463.376
  H      572.088    -894.800     464.697
  P      574.826    -897.490     463.381
  C      574.199    -899.260     461.570
  O      573.772    -898.440     462.619
  O      573.976    -896.960     464.641
  O      576.127    -898.120     463.786
  H      573.210    -896.420     464.389
  H      573.401    -900.000     461.336
  H      575.096    -899.820     461.846
  H      574.406    -898.680     460.669
  H      573.032    -892.017     468.088
  H      572.802    -890.627     467.054
  H      573.803    -891.957     466.521

 3  4  5  6  7  8  9  10  11  12  13  24  28  29  30  31  32 0
 6-311+G(2d,p)
 ****
 33  34 0
 6-311+G(2d,p)
 ****
 1  2  14  15  16  17  18  19  20  21  22  23  25  26  27 0
 3-21G
 ****
 35  36  37  38  39  40  41  42  43  44  45 0
 3-21G
 ****


