%nproc=1
%NoSave
%Mem=1900MB
#P OB98/GEN NMR

erre ene a

0 1
  C      230.075    -106.734     103.009
  O      228.785    -107.017     103.502
  H      230.804    -107.287     103.611
  H      230.297    -105.667     103.093
  H      230.165    -107.054     101.967
  P      227.531    -106.190     102.928
  C      227.203    -104.928     105.138
  O      227.534    -104.805     103.761
  C      226.815    -103.576     105.743
  O      227.985    -102.716     105.802
  C      225.730    -102.834     104.954
  O      224.739    -102.339     105.860
  C      226.481    -101.675     104.312
  O      225.622    -100.580     104.002
  C      227.566    -101.408     105.365
  N      228.685    -100.627     104.842
  C      228.710     -99.268     105.177
  O      227.796     -98.778     105.844
  N      229.740     -98.491     104.715
  C      230.642     -99.011     103.943
  N      231.634     -98.183     103.510
  C      230.633    -100.428     103.526
  C      229.639    -101.174     104.017
  O      226.234    -106.928     102.941
  O      227.990    -105.726     101.465
  H      224.947    -100.891     103.357
  H      227.192    -105.494     100.928
  H      231.401    -100.813     102.872
  H      229.556    -102.228     103.770
  H      227.147    -100.875     106.228
  H      226.946    -102.016     103.378
  H      225.239    -103.453     104.210
  H      226.508    -103.742     106.786
  H      231.605     -97.218     103.819
  H      228.064    -105.352     105.669
  H      232.385     -98.474     102.900
  H      226.351    -105.614     105.227
  P      223.227    -102.806     105.575
  C      222.530    -100.582     104.440
  O      222.688    -101.988     104.303
  O      222.416    -102.183     106.806
  O      223.062    -104.289     105.495
  H      222.244    -102.869     107.478
  H      222.167    -100.173     103.521
  H      223.474    -100.139     104.679
  H      221.830    -100.376     105.223

 6  7  8  9  10  11  12  13  14  15  16  26  30  31  32  33  35 0
 6-311+G(2d,p)
 ****
 37  38 0
 6-311+G(2d,p)
 ****
 1  2  3  4  5  17  18  19  20  21  22  23  24  25 0
 3-21G
 ****
 27  28  29  34  36  39  40  41  42  43  44  45  46 0
 3-21G
 ****


