%nproc=1
%NoSave
%Mem=1900MB
#P OB98/GEN NMR

erre ene a

0 1
  C      700.914     291.439      73.449
  O      700.166     290.542      74.251
  H      701.933     291.493      73.841
  H      700.471     292.440      73.488
  H      700.948     291.086      72.416
  P      698.604     290.407      73.896
  C      697.810     291.974      75.824
  O      697.882     290.654      75.305
  C      697.482     291.930      77.314
  O      696.211     291.283      77.529
  C      698.490     291.136      78.153
  O      699.677     291.866      78.426
  C      697.662     290.898      79.403
  O      697.614     292.100      80.191
  C      696.282     290.560      78.797
  N      696.080     289.133      78.588
  C      696.207     288.301      79.703
  O      696.503     288.778      80.805
  N      696.040     286.942      79.553
  C      695.757     286.452      78.388
  N      695.615     285.104      78.282
  C      695.583     287.286      77.175
  C      695.760     288.601      77.349
  O      698.401     288.828      73.674
  O      698.113     291.257      72.775
  H      696.830     292.021      80.771
  H      697.440     288.629      73.574
  H      695.365     286.841      76.227
  H      695.658     289.279      76.506
  H      695.475     290.940      79.434
  H      698.086     290.109      80.040
  H      698.724     290.166      77.693
  H      697.392     292.966      77.674
  H      695.791     284.548      79.110
  H      697.028     292.514      75.286
  H      695.570     284.624      77.393
  H      698.762     292.489      75.685
  P      701.050     291.308      77.824
  C      702.150     292.076      80.048
  O      702.238     292.030      78.633
  O      701.127     291.989      76.382
  O      701.150     289.810      77.751
  H      701.484     291.370      75.722
  H      703.006     292.583      80.442
  H      702.116     291.079      80.436
  H      701.262     292.600      80.333

 6  7  8  9  10  11  12  13  14  15  16  26  30  31  32  33  35 0
 6-311+G(2d,p)
 ****
 37  38 0
 6-311+G(2d,p)
 ****
 1  2  3  4  5  17  18  19  20  21  22  23  24  25 0
 3-21G
 ****
 27  28  29  34  36  39  40  41  42  43  44  45  46 0
 3-21G
 ****


