%nproc=1
%NoSave
%Mem=1900MB
#P OB98/GEN NMR

erre ene a

0 1
  C      -19.318    -169.188     -23.009
  O      -19.823    -167.873     -22.781
  P      -19.360    -166.687     -23.758
  C      -17.181    -165.445     -24.355
  O      -17.790    -166.437     -23.535
  C      -16.145    -164.641     -23.564
  O      -16.763    -163.839     -22.537
  C      -15.134    -165.516     -22.841
  O      -14.193    -166.064     -23.746
  C      -14.563    -164.533     -21.825
  O      -13.544    -163.713     -22.419
  C      -15.799    -163.673     -21.472
  N      -16.375    -163.998     -20.175
  C      -15.702    -163.482     -19.059
  O      -14.666    -162.834     -19.204
  N      -16.217    -163.731     -17.809
  C      -17.300    -164.438     -17.686
  N      -17.765    -164.650     -16.426
  C      -18.032    -165.007     -18.836
  C      -17.513    -164.758     -20.037
  O      -20.212    -165.461     -23.736
  O      -19.392    -167.387     -25.204
  H      -12.792    -164.310     -22.606
  H      -19.598    -166.710     -25.879
  H      -18.933    -165.585     -18.681
  H      -17.986    -165.141     -20.936
  H      -15.531    -162.609     -21.462
  H      -14.107    -165.049     -20.973
  H      -15.658    -166.327     -22.314
  H      -15.624    -163.971     -24.263
  H      -17.241    -164.256     -15.652
  H      -17.952    -164.773     -24.749
  H      -18.626    -165.141     -16.228
  H      -16.721    -165.937     -25.223
  P      -13.964    -167.652     -23.715
  C      -12.349    -169.274     -22.498
  O      -12.893    -167.969     -22.567
  O      -13.149    -167.925     -25.070
  O      -15.220    -168.467     -23.669
  H      -13.398    -168.793     -25.433
  H      -11.435    -169.236     -21.893
  H      -12.098    -169.657     -23.492
  H      -13.062    -169.946     -22.015
  H      -19.720    -169.856     -22.277
  H      -18.251    -169.178     -22.935
  H      -19.605    -169.516     -23.986

 3  4  5  6  7  8  9  10  11  12  13  23  27  28  29  30  32 0
 6-311+G(2d,p)
 ****
 34  35 0
 6-311+G(2d,p)
 ****
 1  2  14  15  16  17  18  19  20  21  22  24  25  26 0
 3-21G
 ****
 31  33  36  37  38  39  40  41  42  43  44  45  46 0
 3-21G
 ****


