%nproc=1
%NoSave
%Mem=1900MB
#P OB98/GEN NMR

erre ene a

0 1
  C     -441.693     272.725    -338.403
  O     -441.921     274.131    -338.509
  P     -443.262     274.718    -337.849
  C     -445.783     274.110    -337.901
  O     -444.464     273.722    -338.239
  C     -446.819     273.348    -338.728
  O     -446.739     273.790    -340.122
  C     -446.634     271.823    -338.734
  O     -447.933     271.229    -338.828
  C     -445.885     271.567    -340.033
  O     -446.011     270.225    -340.473
  C     -446.529     272.611    -340.931
  N     -445.986     272.047    -345.991
  C     -446.941     271.620    -345.145
  N     -447.010     271.822    -343.803
  C     -445.971     272.531    -343.366
  C     -444.899     272.998    -344.105
  C     -444.919     272.744    -345.487
  N     -443.955     273.181    -346.360
  N     -443.992     273.661    -343.296
  C     -444.513     273.595    -342.082
  N     -445.712     272.932    -342.081
  O     -443.549     276.019    -338.743
  O     -443.170     275.073    -336.397
  H     -445.620     269.632    -339.792
  H     -443.407     276.831    -338.213
  H     -447.749     271.060    -345.592
  H     -444.055     273.996    -341.182
  H     -447.514     272.285    -341.305
  H     -444.812     271.781    -339.887
  H     -446.099     271.435    -337.848
  H     -447.822     273.609    -338.366
  H     -445.896     275.183    -338.105
  H     -444.128     273.084    -347.355
  H     -443.277     273.852    -346.034
  H     -445.954     273.951    -336.833
  P     -448.080     269.701    -338.343
  C     -448.770     267.493    -339.519
  O     -448.315     268.821    -339.662
  O     -449.512     269.685    -337.611
  O     -446.982     269.237    -337.428
  H     -449.525     268.979    -336.932
  H     -449.406     267.244    -340.376
  H     -449.352     267.363    -338.587
  H     -447.921     266.813    -339.513
  H     -440.770     272.476    -338.883
  H     -442.495     272.197    -338.876
  H     -441.644     272.449    -337.371

 3  4  5  6  7  8  9  10  11  12  22  25  29  30  31  32 0
 6-311+G(2d,p)
 ****
 33  36  37 0
 6-311+G(2d,p)
 ****
 1  2  13  14  15  16  17  18  19  20  21  23  24  26 0
 3-21G
 ****
 27  28  34  35  38  39  40  41  42  43  44  45  46  47  48 0
 3-21G
 ****


