%nproc=1
%NoSave
%Mem=1900MB
#P OB98/GEN NMR

erre ene a

0 1
  C      -15.956    -164.094    -134.071
  O      -16.314    -162.825    -134.590
  P      -17.211    -161.852    -133.684
  C      -19.791    -161.761    -133.185
  O      -18.669    -162.517    -133.610
  C      -21.021    -162.665    -133.052
  O      -21.426    -163.105    -134.380
  C      -20.798    -163.921    -132.200
  O      -22.024    -164.185    -131.506
  C      -20.533    -164.994    -133.242
  O      -20.782    -166.303    -132.756
  C      -21.484    -164.545    -134.359
  N      -21.136    -165.092    -135.672
  C      -21.413    -166.434    -135.912
  O      -21.907    -167.191    -135.079
  N      -21.064    -166.900    -137.155
  C      -20.427    -166.189    -138.132
  O      -20.125    -166.663    -139.220
  C      -20.119    -164.791    -137.804
  C      -20.490    -164.311    -136.615
  O      -17.397    -160.603    -134.663
  O      -16.601    -161.533    -132.361
  H      -17.477    -160.860    -135.596
  H      -21.746    -166.415    -132.668
  H      -21.288    -167.862    -137.364
  H      -19.600    -164.199    -138.548
  H      -20.274    -163.283    -136.350
  H      -22.516    -164.824    -134.108
  H      -19.486    -164.942    -133.562
  H      -19.982    -163.802    -131.482
  H      -21.844    -162.065    -132.644
  H      -20.000    -160.978    -133.920
  H      -19.557    -161.275    -132.233
  P      -22.012    -165.299    -130.342
  C      -21.959    -167.915    -130.410
  O      -21.608    -166.694    -131.017
  O      -23.590    -165.465    -130.094
  O      -21.267    -164.911    -129.106
  H      -24.091    -165.579    -130.918
  H      -21.903    -168.713    -131.161
  H      -22.974    -167.887    -130.008
  H      -21.252    -168.142    -129.606
  H      -15.362    -164.619    -134.790
  H      -16.842    -164.656    -133.861
  H      -15.394    -163.965    -133.170

 3  4  5  6  7  8  9  10  11  12  13  24  28  29  30  31  32 0
 6-311+G(2d,p)
 ****
 33  34 0
 6-311+G(2d,p)
 ****
 1  2  14  15  16  17  18  19  20  21  22  23  25  26  27 0
 3-21G
 ****
 35  36  37  38  39  40  41  42  43  44  45 0
 3-21G
 ****


