%nproc=1
%NoSave
%Mem=1900MB
#P OB98/GEN NMR

erre ene a

0 1
  C       29.884      29.955      -4.730
  O       28.790      29.332      -5.375
  H       29.622      30.997      -4.527
  H       30.774      29.934      -5.364
  H       30.091      29.456      -3.781
  P       29.022      27.884      -6.027
  C       29.320      25.504      -5.079
  O       29.305      26.899      -4.787
  C       30.341      24.769      -4.212
  O       31.686      25.136      -4.584
  C       30.245      25.091      -2.729
  O       29.067      24.640      -2.102
  C       31.593      24.609      -2.217
  O       31.611      23.204      -1.970
  C       32.515      24.949      -3.414
  N       33.353      26.113      -3.155
  C       34.654      25.849      -2.742
  O       35.095      24.712      -2.572
  N       35.434      26.944      -2.493
  C       35.035      28.245      -2.571
  O       35.779      29.184      -2.314
  C       33.637      28.463      -2.975
  C       32.871      27.403      -3.247
  O       30.064      27.818      -7.104
  O       27.564      27.444      -6.513
  H       32.547      22.945      -1.868
  H       27.613      26.685      -7.146
  H       36.386      26.773      -2.207
  H       33.281      29.482      -3.035
  H       31.836      27.538      -3.550
  H       33.175      24.100      -3.637
  H       31.882      25.105      -1.288
  H       30.244      26.183      -2.615
  H       30.229      23.694      -4.393
  H       29.592      25.387      -6.133
  H       28.320      25.087      -4.922
  P       28.373      25.387      -0.878
  C       27.551      27.821      -0.393
  O       28.369      26.962      -1.177
  O       28.759      24.933       0.491
  O       26.820      25.001      -1.100
  H       26.415      24.919      -0.214
  H       27.671      28.830      -0.727
  H       27.840      27.749       0.635
  H       26.526      27.530      -0.497

 6  7  8  9  10  11  12  13  14  15  16  26  31  32  33  34  35 0
 6-311+G(2d,p)
 ****
 36  37 0
 6-311+G(2d,p)
 ****
 1  2  3  4  5  17  18  19  20  21  22  23  24  25 0
 3-21G
 ****
 27  28  29  30  38  39  40  41  42  43  44  45 0
 3-21G
 ****


