%nproc=1
%NoSave
%Mem=1900MB
#P OB98/GEN NMR

erre ene a

0 1
  C     -427.196    1180.531       8.470
  O     -427.156    1179.451       9.434
  P     -426.363    1178.091       9.139
  C     -428.108    1177.128       7.531
  O     -426.786    1177.666       7.661
  C     -428.074    1175.878       6.628
  O     -427.538    1176.259       5.336
  C     -427.184    1174.740       7.107
  O     -427.820    1173.839       8.028
  C     -426.964    1173.992       5.797
  O     -428.095    1173.186       5.482
  C     -426.803    1175.125       4.795
  N     -422.423    1173.790       2.490
  C     -423.664    1173.235       2.489
  N     -424.765    1173.612       3.176
  C     -424.536    1174.786       3.804
  C     -423.351    1175.487       3.890
  C     -422.248    1174.974       3.151
  N     -421.003    1175.545       3.136
  N     -423.487    1176.604       4.675
  C     -424.748    1176.586       5.050
  N     -425.425    1175.512       4.528
  O     -426.520    1177.049      10.194
  O     -424.842    1178.564       8.953
  H     -428.866    1173.771       5.394
  H     -424.231    1177.779       9.045
  H     -423.760    1172.298       1.916
  H     -425.213    1177.332       5.701
  H     -427.263    1174.892       3.805
  H     -426.105    1173.319       5.830
  H     -426.232    1175.107       7.472
  H     -429.101    1175.548       6.474
  H     -428.733    1177.886       7.033
  H     -420.328    1175.155       2.496
  H     -420.918    1176.488       3.492
  H     -428.527    1176.879       8.498
  P     -426.816    1172.976       8.975
  C     -426.719    1170.741       7.651
  O     -426.088    1171.941       7.976
  O     -427.486    1172.390      10.160
  O     -425.673    1174.032       9.343
  H     -425.101    1174.288       8.605
  H     -426.124    1170.254       6.827
  H     -427.708    1170.900       7.272
  H     -426.744    1170.064       8.495
  H     -427.775    1181.340       8.864
  H     -427.642    1180.182       7.562
  H     -426.200    1180.869       8.272

 3  4  5  6  7  8  9  10  11  12  22  25  29  30  31  32 0
 6-311+G(2d,p)
 ****
 33  36  37 0
 6-311+G(2d,p)
 ****
 1  2  13  14  15  16  17  18  19  20  21  23  24  26 0
 3-21G
 ****
 27  28  34  35  38  39  40  41  42  43  44  45  46  47  48 0
 3-21G
 ****


