%nproc=1
%NoSave
%Mem=1900MB
#P OB98/GEN NMR

erre ene a

0 1
  C      124.996     299.897     236.387
  O      125.393     301.238     236.149
  P      126.866     301.499     235.570
  C      128.365     300.379     237.404
  O      127.857     301.576     236.826
  C      129.754     300.637     237.986
  O      130.632     301.225     237.001
  C      129.767     301.621     239.152
  O      129.334     300.991     240.364
  C      131.216     302.063     239.181
  O      132.026     301.127     239.908
  C      131.575     302.065     237.681
  N      131.620     303.406     237.118
  C      132.852     304.060     237.172
  O      133.846     303.548     237.684
  N      132.883     305.316     236.649
  C      131.826     306.004     236.129
  O      131.911     307.162     235.734
  C      130.543     305.296     236.136
  C      130.502     304.049     236.615
  O      126.813     302.995     235.023
  O      127.302     300.528     234.517
  H      131.606     300.994     240.779
  H      127.371     303.081     234.219
  H      133.785     305.802     236.653
  H      129.675     305.808     235.737
  H      129.550     303.498     236.639
  H      132.557     301.591     237.529
  H      131.341     303.037     239.677
  H      129.117     302.484     238.928
  H      130.184     299.673     238.304
  H      128.428     299.602     236.621
  H      127.677     300.033     238.180
  P      127.988     301.562     241.036
  C      128.935     303.998     241.159
  O      128.450     302.860     241.856
  O      127.723     300.437     242.164
  O      126.868     301.725     240.068
  H      128.567     300.060     242.507
  H      128.417     304.134     240.193
  H      130.008     303.871     240.973
  H      128.783     304.875     241.754
  H      123.997     299.883     236.769
  H      125.657     299.451     237.100
  H      125.035     299.346     235.471

 3  4  5  6  7  8  9  10  11  12  13  23  28  29  30  31  32 0
 6-311+G(2d,p)
 ****
 33  34 0
 6-311+G(2d,p)
 ****
 1  2  14  15  16  17  18  19  20  21  22  24  25  26 0
 3-21G
 ****
 27  35  36  37  38  39  40  41  42  43  44  45 0
 3-21G
 ****


