%nproc=1
%NoSave
%Mem=1900MB
#P OB98/GEN NMR

erre ene a

0 1
  C      -63.803    -201.622      -7.081
  O      -63.882    -202.643      -8.055
  H      -64.782    -201.511      -6.610
  H      -63.533    -200.676      -7.556
  H      -63.068    -201.879      -6.316
  P      -62.520    -203.032      -8.809
  C      -60.378    -204.254      -8.006
  O      -61.452    -203.391      -7.662
  C      -59.627    -204.706      -6.755
  O      -58.931    -203.559      -6.183
  C      -60.526    -205.292      -5.655
  O      -59.799    -206.339      -4.999
  C      -60.671    -204.134      -4.682
  O      -61.036    -204.561      -3.372
  C      -59.275    -203.521      -4.783
  N      -59.044    -200.833      -0.536
  C      -59.016    -202.200      -0.736
  N      -58.910    -202.973       0.366
  N      -59.085    -202.761      -1.913
  C      -59.155    -201.866      -2.929
  C      -59.196    -200.494      -2.865
  C      -59.145    -199.885      -1.551
  O      -59.187    -198.683      -1.311
  N      -59.297    -199.944      -4.119
  C      -59.315    -200.982      -4.936
  N      -59.232    -202.169      -4.262
  O      -62.014    -201.620      -9.368
  O      -62.656    -204.047      -9.894
  H      -61.000    -203.781      -2.780
  H      -62.326    -201.487     -10.282
  H      -59.002    -200.453       0.393
  H      -59.391    -200.930      -6.014
  H      -58.524    -204.099      -4.230
  H      -61.434    -203.432      -5.039
  H      -58.804    -202.611       1.301
  H      -61.487    -205.677      -6.014
  H      -58.842    -203.977       0.237
  H      -58.855    -205.425      -7.052
  H      -59.687    -203.716      -8.665
  H      -60.773    -205.125      -8.539
  P      -59.947    -207.829      -5.565
  C      -60.160    -208.889      -7.930
  O      -59.731    -207.783      -7.153
  O      -61.521    -208.105      -5.431
  O      -59.144    -208.849      -4.828
  H      -61.681    -209.059      -5.323
  H      -59.946    -208.704      -8.962
  H      -61.213    -209.027      -7.803
  H      -59.644    -209.770      -7.611

 6  7  8  9  10  11  12  13  14  15  26  29  33  34 0
 6-311+G(2d,p)
 ****
 36  38  39  40  41 0
 6-311+G(2d,p)
 ****
 1  2  3  4  5  16  17  18  19  20  21  22  23  24  25 0
 3-21G
 ****
 27  28  30  31  32  35  37  42  43  44  45  46  47 0
 3-21G
 ****
 48  49 0
 3-21G
 ****


