%nproc=1
%NoSave
%Mem=1900MB
#P OB98/GEN NMR

erre ene a

0 1
  C     -129.141    -132.913    -140.946
  O     -128.905    -132.337    -142.241
  P     -128.898    -133.291    -143.534
  C     -130.263    -133.356    -145.767
  O     -129.733    -132.577    -144.704
  C     -130.831    -132.444    -146.858
  O     -131.971    -131.706    -146.357
  C     -129.860    -131.382    -147.356
  O     -128.892    -131.921    -148.241
  C     -130.810    -130.396    -148.026
  O     -131.137    -130.823    -149.359
  C     -132.047    -130.473    -147.111
  N     -132.168    -129.319    -146.226
  C     -133.318    -128.548    -146.373
  O     -134.176    -128.770    -147.226
  N     -133.437    -127.488    -145.515
  C     -132.507    -127.088    -144.596
  O     -132.662    -126.116    -143.872
  C     -131.276    -127.892    -144.547
  C     -131.164    -128.950    -145.354
  O     -129.896    -134.464    -143.087
  O     -127.568    -133.846    -143.923
  H     -130.307    -131.139    -149.765
  H     -129.656    -135.291    -143.550
  H     -134.275    -126.933    -145.581
  H     -130.505    -127.595    -143.849
  H     -130.261    -129.554    -145.328
  H     -132.961    -130.548    -147.714
  H     -130.383    -129.390    -148.107
  H     -129.377    -130.890    -146.506
  H     -131.172    -133.077    -147.689
  H     -131.064    -133.993    -145.380
  H     -129.471    -133.993    -146.172
  P     -127.518    -132.430    -147.583
  C     -125.145    -132.870    -148.590
  O     -126.414    -132.266    -148.732
  O     -127.789    -134.006    -147.487
  O     -127.214    -131.770    -146.277
  H     -128.339    -134.328    -148.222
  H     -125.209    -133.811    -148.043
  H     -124.475    -132.184    -148.062
  H     -124.736    -133.066    -149.586
  H     -129.112    -132.144    -140.203
  H     -128.385    -133.640    -140.736
  H     -130.102    -133.384    -140.935

 3  4  5  6  7  8  9  10  11  12  13  23  28  29  30  31  32 0
 6-311+G(2d,p)
 ****
 33  34 0
 6-311+G(2d,p)
 ****
 1  2  14  15  16  17  18  19  20  21  22  24  25  26 0
 3-21G
 ****
 27  35  36  37  38  39  40  41  42  43  44  45 0
 3-21G
 ****


