%nproc=1
%NoSave
%Mem=1900MB
#P OB98/GEN NMR

erre ene a

0 1
  C      341.774      70.608     -47.834
  O      342.117      71.668     -48.702
  H      340.692      70.471     -47.856
  H      342.075      70.850     -46.810
  H      342.253      69.676     -48.149
  P      343.669      71.959     -48.998
  C      343.501      74.367     -48.076
  O      344.131      73.097     -47.966
  C      344.018      75.322     -46.996
  O      343.762      74.728     -45.687
  C      345.538      75.609     -47.072
  O      345.740      76.935     -46.556
  C      346.073      74.556     -46.118
  O      347.422      74.760     -45.790
  C      345.032      74.676     -44.993
  N      345.041      73.599     -44.015
  C      344.833      73.940     -42.677
  O      344.647      75.085     -42.268
  N      344.858      72.897     -41.793
  C      345.047      71.578     -42.104
  O      345.029      70.686     -41.258
  C      345.265      71.285     -43.526
  C      345.247      72.288     -44.403
  O      344.019      72.213     -50.425
  O      344.411      70.653     -48.435
  H      344.646      70.067     -49.175
  H      347.638      74.230     -44.991
  H      344.707      73.124     -40.821
  H      345.432      70.251     -43.801
  H      345.393      72.104     -45.465
  H      345.151      75.638     -44.482
  H      346.027      73.569     -46.589
  H      345.931      75.549     -48.091
  H      343.439      76.256     -47.041
  H      342.422      74.226     -47.964
  H      343.703      74.783     -49.072
  P      345.732      78.253     -47.477
  C      348.248      78.107     -48.072
  O      346.910      78.105     -48.558
  O      345.783      79.528     -46.699
  O      344.390      78.151     -48.349
  H      344.101      79.050     -48.599
  H      348.926      78.002     -48.893
  H      348.382      77.291     -47.393
  H      348.442      79.029     -47.565

 6  7  8  9  10  11  12  13  14  15  16  27  31  32  33  34  35 0
 6-311+G(2d,p)
 ****
 36  37 0
 6-311+G(2d,p)
 ****
 1  2  3  4  5  17  18  19  20  21  22  23  24  25 0
 3-21G
 ****
 26  28  29  30  38  39  40  41  42  43  44  45 0
 3-21G
 ****


