%nproc=1
%NoSave
%Mem=1900MB
#P OB98/GEN NMR

erre ene a

0 1
  C       17.794      19.440      16.420
  O       16.778      20.124      15.714
  H       18.082      18.554      15.850
  H       17.413      19.122      17.394
  H       18.673      20.076      16.552
  P       16.439      21.616      16.198
  C       14.277      21.125      17.547
  O       15.652      21.475      17.591
  C       13.770      20.801      18.948
  O       14.664      19.879      19.607
  C       13.647      22.010      19.869
  O       12.421      22.701      19.663
  C       13.670      21.334      21.228
  O       12.381      20.740      21.498
  C       14.718      20.232      21.018
  N       19.212      18.608      22.712
  C       18.025      17.921      22.554
  N       18.035      16.617      22.905
  N       16.925      18.462      22.098
  C       17.056      19.778      21.811
  C       18.177      20.569      21.932
  C       19.389      19.955      22.421
  O       20.470      20.518      22.570
  N       17.927      21.859      21.544
  C       16.652      21.854      21.210
  N       16.077      20.616      21.357
  O       15.304      22.073      15.164
  O       17.590      22.563      16.194
  H       11.755      21.472      21.644
  H       15.705      22.663      14.497
  H       20.027      18.147      23.077
  H       16.103      22.712      20.851
  H       14.491      19.327      21.592
  H       13.873      22.031      22.043
  H       18.840      16.145      23.283
  H       14.510      22.680      19.776
  H       17.176      16.093      22.793
  H       12.801      20.295      18.844
  H       14.152      20.250      16.902
  H       13.710      21.963      17.130
  P       12.475      24.285      19.416
  C       12.584      24.855      21.943
  O       13.229      24.930      20.680
  O       10.951      24.724      19.625
  O       12.984      24.703      18.081
  H       10.567      25.010      18.773
  H       13.198      25.322      22.685
  H       12.428      23.829      22.203
  H       11.641      25.358      21.892

 6  7  8  9  10  11  12  13  14  15  26  29  33  34 0
 6-311+G(2d,p)
 ****
 36  38  39  40  41 0
 6-311+G(2d,p)
 ****
 1  2  3  4  5  16  17  18  19  20  21  22  23  24  25 0
 3-21G
 ****
 27  28  30  31  32  35  37  42  43  44  45  46  47 0
 3-21G
 ****
 48  49 0
 3-21G
 ****


