%nproc=1
%NoSave
%Mem=1900MB
#P OB98/GEN NMR

erre ene a

0 1
  C      259.138     389.353       1.457
  O      260.376     389.010       2.060
  P      260.445     388.024       3.324
  C      260.381     386.088       1.613
  O      259.855     386.628       2.811
  C      260.237     384.566       1.599
  O      260.604     384.072       0.286
  C      261.112     383.840       2.629
  O      260.373     382.699       3.086
  C      262.307     383.410       1.812
  O      263.013     382.321       2.396
  C      261.641     383.088       0.469
  N      262.589     383.109      -0.646
  C      262.619     381.994      -1.488
  O      261.895     381.023      -1.280
  N      263.482     382.011      -2.556
  C      264.296     383.001      -2.716
  N      265.087     382.995      -3.825
  C      264.370     384.148      -1.792
  C      263.478     384.146      -0.804
  O      259.809     388.552       4.566
  O      262.000     387.691       3.478
  H      263.506     382.656       3.168
  H      262.490     388.367       4.008
  H      265.085     384.940      -1.951
  H      263.443     384.953      -0.089
  H      261.143     382.115       0.517
  H      263.009     384.246       1.716
  H      261.367     384.469       3.488
  H      259.178     384.321       1.755
  H      264.887     382.291      -4.524
  H      261.448     386.341       1.559
  H      265.491     383.851      -4.187
  H      259.877     386.539       0.748
  P      260.934     381.886       4.350
  C      259.527     382.991       6.232
  O      260.803     382.821       5.643
  O      262.516     381.918       4.080
  O      260.472     380.470       4.487
  H      262.932     381.148       4.515
  H      259.628     383.645       7.099
  H      259.131     382.030       6.565
  H      258.838     383.451       5.521
  H      259.313     390.017       0.636
  H      258.511     389.835       2.178
  H      258.656     388.466       1.102

 3  4  5  6  7  8  9  10  11  12  13  23  27  28  29  30  32 0
 6-311+G(2d,p)
 ****
 34  35 0
 6-311+G(2d,p)
 ****
 1  2  14  15  16  17  18  19  20  21  22  24  25  26 0
 3-21G
 ****
 31  33  36  37  38  39  40  41  42  43  44  45  46 0
 3-21G
 ****


