%nproc=1
%NoSave
%Mem=1900MB
#P OB98/GEN NMR

erre ene a

0 1
  C     -250.970    -179.807    -154.608
  O     -249.749    -180.506    -154.484
  P     -248.614    -180.425    -155.615
  C     -246.821    -179.211    -154.228
  O     -247.765    -179.102    -155.284
  C     -245.431    -178.750    -154.675
  O     -244.493    -178.901    -153.577
  C     -244.860    -179.519    -155.881
  O     -244.080    -178.572    -156.620
  C     -243.967    -180.544    -155.217
  O     -242.998    -181.085    -156.110
  C     -243.403    -179.728    -154.046
  N     -242.862    -180.579    -152.993
  C     -241.619    -181.165    -153.236
  O     -241.063    -181.018    -154.328
  N     -241.055    -181.951    -152.264
  C     -241.727    -182.212    -151.184
  N     -241.114    -182.991    -150.250
  C     -243.094    -181.716    -150.943
  C     -243.592    -180.903    -151.871
  O     -249.111    -180.519    -157.019
  O     -247.601    -181.596    -155.219
  H     -242.350    -180.376    -156.326
  H     -247.967    -182.475    -155.485
  H     -243.633    -182.003    -150.052
  H     -244.582    -180.490    -151.781
  H     -242.608    -179.054    -154.392
  H     -244.577    -181.375    -154.843
  H     -245.628    -179.966    -156.511
  H     -245.490    -177.681    -154.906
  H     -240.169    -183.295    -150.452
  H     -246.762    -180.260    -153.934
  H     -241.514    -183.184    -149.343
  H     -247.162    -178.635    -153.362
  P     -243.509    -178.925    -158.076
  C     -245.001    -177.187    -159.217
  O     -244.655    -178.558    -159.132
  O     -242.943    -180.303    -158.217
  O     -242.392    -177.809    -158.349
  H     -241.822    -178.093    -159.090
  H     -245.569    -177.023    -160.139
  H     -244.111    -176.557    -159.230
  H     -245.628    -176.914    -158.363
  H     -251.579    -179.998    -153.749
  H     -251.481    -180.136    -155.488
  H     -250.774    -178.758    -154.680

 3  4  5  6  7  8  9  10  11  12  13  23  27  28  29  30  32 0
 6-311+G(2d,p)
 ****
 34  35 0
 6-311+G(2d,p)
 ****
 1  2  14  15  16  17  18  19  20  21  22  24  25  26 0
 3-21G
 ****
 31  33  36  37  38  39  40  41  42  43  44  45  46 0
 3-21G
 ****


