%nproc=1
%NoSave
%Mem=1900MB
#P OB98/GEN NMR

erre ene a

0 1
  C     -259.518     638.523     148.465
  O     -260.642     639.235     147.990
  H     -259.827     637.910     149.314
  H     -258.744     639.223     148.802
  H     -259.113     637.868     147.690
  P     -260.506     640.073     146.632
  C     -262.586     641.354     147.469
  O     -261.934     640.749     146.359
  C     -264.081     641.550     147.178
  O     -264.227     642.051     145.815
  C     -264.919     640.263     147.274
  O     -266.239     640.647     147.681
  C     -264.898     639.796     145.828
  O     -265.823     638.768     145.578
  C     -265.116     641.143     145.133
  N     -264.864     641.155     143.696
  C     -265.792     641.793     142.879
  O     -266.808     642.356     143.283
  N     -265.521     641.770     141.538
  C     -264.433     641.199     140.948
  O     -264.225     641.235     139.740
  C     -263.489     640.534     141.860
  C     -263.742     640.546     143.168
  O     -259.924     639.340     145.469
  O     -259.596     641.325     147.051
  H     -258.679     641.183     146.745
  H     -265.529     637.951     146.038
  H     -266.180     642.229     140.932
  H     -262.621     640.060     141.424
  H     -263.062     640.071     143.869
  H     -266.136     641.502     145.316
  H     -263.918     639.383     145.581
  H     -264.516     639.539     147.989
  H     -264.471     642.329     147.846
  H     -262.114     642.323     147.654
  H     -262.455     640.720     148.352
  P     -267.019     639.974     148.914
  C     -269.335     640.360     147.827
  O     -268.503     640.582     148.959
  O     -266.289     640.070     150.215
  O     -267.239     638.446     148.488
  H     -267.313     637.893     149.290
  H     -270.289     640.816     147.991
  H     -269.463     639.308     147.680
  H     -268.879     640.789     146.959

 6  7  8  9  10  11  12  13  14  15  16  27  31  32  33  34  35 0
 6-311+G(2d,p)
 ****
 36  37 0
 6-311+G(2d,p)
 ****
 1  2  3  4  5  17  18  19  20  21  22  23  24  25 0
 3-21G
 ****
 26  28  29  30  38  39  40  41  42  43  44  45 0
 3-21G
 ****


