%nproc=1
%NoSave
%Mem=1900MB
#P OB98/GEN NMR

erre ene a

0 1
  C     -261.642     178.656    -101.797
  O     -262.781     177.811    -101.703
  P     -262.781     176.345    -102.358
  C     -264.638     175.574    -100.758
  O     -263.299     175.371    -101.198
  C     -265.050     174.448     -99.808
  O     -264.193     174.496     -98.641
  C     -266.479     174.533     -99.260
  O     -267.473     173.991    -100.111
  C     -266.351     173.663     -98.014
  O     -266.395     172.271     -98.386
  C     -264.958     174.031     -97.502
  N     -267.370     175.715     -93.311
  C     -267.548     174.613     -94.082
  N     -266.876     174.246     -95.193
  C     -265.898     175.126     -95.468
  C     -265.591     176.285     -94.773
  C     -266.377     176.575     -93.644
  N     -266.174     177.678     -92.846
  N     -264.529     176.945     -95.372
  C     -264.201     176.183     -96.391
  N     -264.992     175.074     -96.489
  O     -261.493     175.957    -103.008
  O     -264.012     176.371    -103.380
  H     -267.243     172.127     -98.846
  H     -263.934     175.629    -104.012
  H     -268.346     173.945     -93.765
  H     -263.404     176.397     -97.087
  H     -264.420     173.171     -97.080
  H     -267.162     173.826     -97.295
  H     -266.728     175.559     -98.957
  H     -264.883     173.491    -100.313
  H     -265.294     175.564    -101.636
  H     -266.696     177.734     -91.993
  H     -265.338     178.227     -93.000
  H     -264.723     176.552    -100.273
  P     -268.701     174.949    -100.505
  C     -268.236     174.646    -103.067
  O     -268.354     175.521    -101.959
  O     -269.046     175.974     -99.480
  O     -269.881     173.907    -100.791
  H     -269.757     173.343    -101.571
  H     -268.162     175.243    -103.976
  H     -269.114     173.994    -103.144
  H     -267.331     174.039    -102.960
  H     -261.843     179.582    -101.300
  H     -261.422     178.844    -102.827
  H     -260.804     178.178    -101.335

 3  4  5  6  7  8  9  10  11  12  22  25  29  30  31  32 0
 6-311+G(2d,p)
 ****
 33  36  37 0
 6-311+G(2d,p)
 ****
 1  2  13  14  15  16  17  18  19  20  21  23  24  26 0
 3-21G
 ****
 27  28  34  35  38  39  40  41  42  43  44  45  46  47  48 0
 3-21G
 ****


