%nproc=1
%NoSave
%Mem=1900MB
#P OB98/GEN NMR

erre ene a

0 1
  C      197.361    -342.029     240.272
  O      197.794    -342.053     238.930
  H      198.222    -342.232     240.916
  H      196.612    -342.805     240.447
  H      196.955    -341.048     240.529
  P      196.722    -341.828     237.756
  C      195.245    -339.854     237.041
  O      196.390    -340.252     237.783
  C      194.987    -338.355     237.189
  O      194.787    -338.032     238.592
  C      196.136    -337.475     236.673
  O      195.613    -336.425     235.855
  C      196.731    -336.885     237.941
  O      197.421    -335.657     237.715
  C      195.488    -336.799     238.831
  N      195.830    -336.615     240.235
  C      195.454    -335.394     240.805
  O      194.865    -334.548     240.132
  N      195.803    -335.137     242.106
  C      196.507    -336.003     242.766
  N      196.846    -335.673     244.041
  C      196.949    -337.291     242.192
  C      196.574    -337.532     240.937
  O      195.534    -342.725     237.815
  O      197.561    -341.986     236.400
  H      196.757    -334.951     237.562
  H      196.942    -342.212     235.668
  H      197.540    -337.978     242.783
  H      196.853    -338.449     240.430
  H      194.837    -335.970     238.517
  H      197.448    -337.600     238.372
  H      196.880    -338.032     236.102
  H      194.045    -338.112     236.681
  H      196.527    -334.777     244.391
  H      194.381    -340.428     237.397
  H      197.410    -336.255     244.640
  H      195.419    -340.084     235.985
  P      195.071    -336.858     234.408
  C      192.739    -337.878     233.895
  O      193.466    -336.787     234.437
  O      195.388    -338.426     234.348
  O      195.721    -336.123     233.285
  H      196.104    -338.595     233.708
  H      191.690    -337.688     233.985
  H      192.986    -338.772     234.429
  H      192.992    -337.998     232.862

 6  7  8  9  10  11  12  13  14  15  16  26  30  31  32  33  35 0
 6-311+G(2d,p)
 ****
 37  38 0
 6-311+G(2d,p)
 ****
 1  2  3  4  5  17  18  19  20  21  22  23  24  25 0
 3-21G
 ****
 27  28  29  34  36  39  40  41  42  43  44  45  46 0
 3-21G
 ****


