%nproc=1
%NoSave
%Mem=1900MB
#P OB98/GEN NMR

erre ene a

0 1
  C      -29.128      -6.129    -682.377
  O      -29.025      -7.337    -681.652
  H      -29.487      -6.353    -683.382
  H      -28.147      -5.653    -682.452
  H      -29.837      -5.451    -681.893
  P      -28.533      -7.236    -680.126
  C      -26.221      -7.663    -678.997
  O      -27.071      -7.910    -680.116
  C      -25.029      -8.628    -679.008
  O      -25.491      -9.956    -678.653
  C      -24.335      -8.723    -680.374
  O      -22.924      -8.730    -680.179
  C      -24.810     -10.051    -680.937
  O      -23.876     -10.611    -681.860
  C      -25.038     -10.880    -679.665
  N      -26.007     -11.954    -679.874
  C      -25.571     -13.266    -679.623
  O      -24.410     -13.460    -679.255
  N      -26.428     -14.305    -679.844
  C      -27.611     -14.078    -680.339
  N      -28.409     -15.156    -680.561
  C      -28.098     -12.723    -680.660
  C      -27.258     -11.719    -680.405
  O      -29.453      -8.313    -679.379
  O      -28.591      -5.873    -679.530
  H      -22.973     -10.486    -681.485
  H      -29.411      -8.208    -678.399
  H      -29.082     -12.581    -681.083
  H      -27.535     -10.689    -680.608
  H      -24.099     -11.328    -679.307
  H      -25.758      -9.912    -681.461
  H      -24.601      -7.904    -681.042
  H      -24.328      -8.320    -678.226
  H      -28.034     -16.067    -680.336
  H      -26.798      -7.792    -678.077
  H      -29.333     -15.092    -680.965
  H      -25.857      -6.630    -679.047
  P      -22.110      -7.574    -680.946
  C      -20.630      -7.432    -683.070
  O      -21.573      -8.188    -682.329
  O      -20.786      -7.394    -680.062
  O      -22.874      -6.298    -681.090
  H      -20.872      -6.626    -679.463
  H      -20.367      -7.964    -683.960
  H      -19.754      -7.274    -682.477
  H      -21.058      -6.487    -683.332

 6  7  8  9  10  11  12  13  14  15  16  26  30  31  32  33  35 0
 6-311+G(2d,p)
 ****
 37  38 0
 6-311+G(2d,p)
 ****
 1  2  3  4  5  17  18  19  20  21  22  23  24  25 0
 3-21G
 ****
 27  28  29  34  36  39  40  41  42  43  44  45  46 0
 3-21G
 ****


