%nproc=1
%NoSave
%Mem=1900MB
#P OB98/GEN NMR

erre ene a

0 1
  C      -95.927      26.425     -18.305
  O      -95.012      27.386     -17.775
  P      -95.575      28.781     -17.223
  C      -93.776      29.003     -15.388
  O      -94.374      29.591     -16.533
  C      -92.278      29.337     -15.312
  O      -91.536      28.460     -16.200
  C      -91.967      30.787     -15.710
  O      -91.162      31.470     -14.752
  C      -91.373      30.652     -17.102
  O      -90.546      31.750     -17.460
  C      -90.709      29.271     -17.055
  N      -90.554      28.691     -18.392
  C      -89.282      28.252     -18.739
  O      -88.299      28.395     -18.013
  N      -89.158      27.687     -19.980
  C      -90.143      27.599     -20.918
  O      -89.971      27.126     -22.035
  C      -91.452      28.140     -20.520
  C      -91.593      28.652     -19.297
  O      -96.828      28.703     -16.416
  O      -95.824      29.623     -18.570
  H      -89.831      31.830     -16.790
  H      -96.644      30.141     -18.453
  H      -88.245      27.346     -20.238
  H      -92.253      28.107     -21.245
  H      -92.542      29.070     -18.982
  H      -89.710      29.333     -16.611
  H      -92.198      30.621     -17.826
  H      -92.881      31.391     -15.764
  H      -91.954      29.145     -14.286
  H      -93.894      27.918     -15.433
  H      -94.311      29.332     -14.491
  P      -91.728      32.463     -13.632
  C      -90.338      31.455     -11.691
  O      -90.630      32.594     -12.474
  O      -93.112      32.183     -13.155
  O      -91.673      33.892     -14.356
  H      -92.470      34.401     -14.124
  H      -89.881      31.782     -10.754
  H      -89.624      30.819     -12.227
  H      -91.240      30.882     -11.464
  H      -95.388      25.558     -18.626
  H      -96.448      26.850     -19.138
  H      -96.631      26.147     -17.548

 3  4  5  6  7  8  9  10  11  12  13  23  28  29  30  31  32 0
 6-311+G(2d,p)
 ****
 33  34 0
 6-311+G(2d,p)
 ****
 1  2  14  15  16  17  18  19  20  21  22  24  25  26  27 0
 3-21G
 ****
 35  36  37  38  39  40  41  42  43  44  45 0
 3-21G
 ****


