%nproc=1
%NoSave
%Mem=1900MB
#P OB98/GEN NMR

erre ene a

0 1
  C     -340.382     192.096    -365.468
  O     -340.637     191.008    -366.345
  P     -341.714     189.910    -365.886
  C     -341.635     187.875    -364.269
  O     -341.097     189.144    -364.616
  C     -340.938     187.310    -363.023
  O     -341.138     188.236    -361.919
  C     -341.468     185.934    -362.571
  O     -340.345     185.219    -362.039
  C     -342.448     186.317    -361.474
  O     -342.804     185.236    -360.618
  C     -341.697     187.471    -360.819
  N     -343.488     188.231    -356.086
  C     -342.593     187.351    -356.579
  N     -342.156     187.212    -357.852
  C     -342.740     188.114    -358.655
  C     -343.694     189.061    -358.300
  C     -344.067     189.107    -356.943
  N     -344.999     190.003    -356.454
  N     -344.089     189.800    -359.406
  C     -343.389     189.299    -360.408
  N     -342.541     188.304    -360.002
  O     -341.630     188.818    -367.048
  O     -343.106     190.434    -365.696
  H     -343.367     184.602    -361.107
  H     -342.521     188.462    -367.260
  H     -342.157     186.666    -355.854
  H     -343.468     189.622    -361.445
  H     -340.868     187.117    -360.196
  H     -343.381     186.670    -361.940
  H     -341.913     185.344    -363.385
  H     -339.865     187.257    -363.224
  H     -341.477     187.173    -365.100
  H     -345.340     189.821    -355.516
  H     -345.569     190.504    -357.130
  H     -342.722     187.966    -364.111
  P     -340.395     183.610    -361.988
  C     -340.960     182.091    -359.998
  O     -341.272     183.293    -360.677
  O     -338.909     183.282    -361.474
  O     -340.787     182.938    -363.268
  H     -338.687     183.793    -360.687
  H     -341.555     182.044    -359.082
  H     -339.895     182.069    -359.737
  H     -341.208     181.234    -360.617
  H     -339.648     192.741    -365.904
  H     -340.019     191.723    -364.533
  H     -341.287     192.644    -365.306

 3  4  5  6  7  8  9  10  11  12  22  25  29  30  31  32 0
 6-311+G(2d,p)
 ****
 33  36  37 0
 6-311+G(2d,p)
 ****
 1  2  13  14  15  16  17  18  19  20  21  23  24  26 0
 3-21G
 ****
 27  28  34  35  38  39  40  41  42  43  44  45  46  47  48 0
 3-21G
 ****


