%nproc=1
%NoSave
%Mem=1900MB
#P OB98/GEN NMR

erre ene a

0 1
  C      237.071      38.475    -899.080
  O      236.876      37.447    -898.100
  P      237.313      35.945    -898.450
  C      238.392      34.197    -896.880
  O      237.287      35.057    -897.120
  C      238.350      33.644    -895.450
  O      238.565      34.703    -894.470
  C      236.984      33.071    -895.080
  O      236.603      31.868    -895.720
  C      237.027      33.066    -893.570
  O      237.708      31.923    -893.050
  C      237.856      34.354    -893.270
  N      237.005      35.476    -892.810
  C      236.701      35.481    -891.450
  O      237.059      34.604    -890.670
  N      235.939      36.542    -891.030
  C      235.429      37.533    -891.840
  O      234.724      38.435    -891.390
  C      235.757      37.445    -893.260
  C      236.533      36.435    -893.670
  O      238.529      35.792    -899.290
  O      236.015      35.388    -899.250
  H      237.831      32.065    -892.100
  H      236.335      34.849    -900.000
  H      235.702      36.565    -890.050
  H      235.376      38.204    -893.910
  H      236.788      36.353    -894.730
  H      238.610      34.157    -892.490
  H      236.019      33.060    -893.130
  H      236.217      33.807    -895.370
  H      239.142      32.911    -895.340
  H      239.331      34.751    -897.050
  H      238.385      33.383    -897.620
  P      235.630      31.828    -897.000
  C      234.384      29.912    -898.260
  O      234.898      30.398    -897.030
  O      236.169      32.341    -898.300
  O      234.426      32.789    -896.510
  H      234.066      33.250    -897.300
  H      233.907      28.942    -898.090
  H      235.176      29.802    -899.000
  H      233.626      30.607    -898.640
  H      236.729      39.410    -898.689
  H      236.518      38.234    -899.964
  H      238.112      38.548    -899.319

 3  4  5  6  7  8  9  10  11  12  13  23  28  29  30  31  32 0
 6-311+G(2d,p)
 ****
 33  34 0
 6-311+G(2d,p)
 ****
 1  2  14  15  16  17  18  19  20  21  22  24  25  26  27 0
 3-21G
 ****
 35  36  37  38  39  40  41  42  43  44  45 0
 3-21G
 ****


