%nproc=1
%NoSave
%Mem=1900MB
#P OB98/GEN NMR

erre ene a

0 1
  C     -106.514     -21.099     -56.850
  O     -107.553     -20.854     -57.775
  H     -106.480     -22.170     -56.638
  H     -106.694     -20.563     -55.914
  H     -105.551     -20.798     -57.273
  P     -107.886     -19.332     -58.161
  C     -109.365     -19.488     -56.039
  O     -108.467     -18.697     -56.802
  C     -110.134     -18.611     -55.054
  O     -109.246     -18.019     -54.084
  C     -110.864     -17.429     -55.683
  O     -112.035     -17.799     -56.392
  C     -111.171     -16.614     -54.437
  O     -112.270     -17.215     -53.728
  C     -109.850     -16.770     -53.644
  N     -108.927     -15.655     -53.850
  C     -108.800     -14.743     -52.794
  O     -109.443     -14.894     -51.756
  N     -107.973     -13.658     -52.953
  C     -107.344     -13.486     -54.074
  N     -106.574     -12.368     -54.196
  C     -107.435     -14.429     -55.204
  C     -108.239     -15.476     -55.030
  O     -108.734     -19.128     -59.375
  O     -106.454     -18.625     -58.260
  H     -111.966     -18.087     -53.419
  H     -106.605     -17.680     -58.510
  H     -106.896     -14.235     -56.119
  H     -108.371     -16.205     -55.821
  H     -110.051     -16.870     -52.571
  H     -111.451     -15.580     -54.655
  H     -110.190     -16.848     -56.322
  H     -110.824     -19.262     -54.501
  H     -106.569     -11.724     -53.417
  H     -108.785     -20.252     -55.513
  H     -106.285     -12.025     -55.106
  H     -110.086     -19.980     -56.698
  P     -112.201     -17.270     -57.900
  C     -113.247     -15.012     -57.130
  O     -112.200     -15.667     -57.828
  O     -113.719     -17.634     -58.239
  O     -111.237     -17.837     -58.894
  H     -113.782     -18.499     -58.689
  H     -113.099     -13.953     -57.177
  H     -113.246     -15.328     -56.108
  H     -114.186     -15.261     -57.579

 6  7  8  9  10  11  12  13  14  15  16  26  30  31  32  33  35 0
 6-311+G(2d,p)
 ****
 37  38 0
 6-311+G(2d,p)
 ****
 1  2  3  4  5  17  18  19  20  21  22  23  24  25 0
 3-21G
 ****
 27  28  29  34  36  39  40  41  42  43  44  45  46 0
 3-21G
 ****


