%nproc=1
%NoSave
%Mem=1900MB
#P OB98/GEN NMR

erre ene a

0 1
  C       62.648    -258.386    -359.290
  O       61.981    -258.626    -358.065
  H       63.478    -257.699    -359.108
  H       61.966    -257.926    -360.015
  H       63.048    -259.318    -359.696
  P       60.690    -259.575    -358.070
  C       59.015    -257.612    -357.927
  O       59.499    -258.703    -358.701
  C       57.520    -257.406    -358.170
  O       57.271    -257.096    -359.555
  C       56.661    -258.629    -357.840
  O       56.403    -258.697    -356.447
  C       55.415    -258.313    -358.651
  O       54.632    -257.312    -357.966
  C       56.014    -257.717    -359.939
  N       53.954    -260.881    -363.331
  C       53.355    -260.154    -362.323
  N       52.020    -260.313    -362.178
  N       54.004    -259.351    -361.520
  C       55.340    -259.343    -361.735
  C       56.055    -260.034    -362.690
  C       55.312    -260.872    -363.620
  O       55.803    -261.513    -364.539
  N       57.405    -259.851    -362.549
  C       57.506    -259.003    -361.538
  N       56.282    -258.671    -361.004
  O       60.345    -260.222    -356.764
  O       60.999    -260.651    -359.214
  H       54.033    -256.920    -358.627
  H       61.429    -261.446    -358.843
  H       53.402    -261.494    -363.912
  H       58.438    -258.600    -361.160
  H       55.380    -256.934    -360.367
  H       54.772    -259.183    -358.795
  H       51.493    -261.026    -362.662
  H       57.109    -259.553    -358.227
  H       51.574    -259.831    -361.405
  H       57.200    -256.536    -357.585
  H       59.573    -256.718    -358.228
  H       59.193    -257.789    -356.862
  P       56.695    -260.036    -355.609
  C       54.364    -260.991    -356.198
  O       55.770    -261.167    -356.270
  O       56.541    -259.897    -354.133
  O       58.153    -260.489    -356.073
  H       58.880    -260.041    -355.570
  H       53.876    -261.815    -356.676
  H       54.093    -260.081    -356.691
  H       54.062    -260.944    -355.172

 6  7  8  9  10  11  12  13  14  15  26  29  33  34 0
 6-311+G(2d,p)
 ****
 36  38  39  40  41 0
 6-311+G(2d,p)
 ****
 1  2  3  4  5  16  17  18  19  20  21  22  23  24  25 0
 3-21G
 ****
 27  28  30  31  32  35  37  42  43  44  45  46  47 0
 3-21G
 ****
 48  49 0
 3-21G
 ****


