%nproc=1
%NoSave
%Mem=1900MB
#P OB98/GEN NMR

erre ene a

0 1
  C        1.362      93.471     420.986
  O        2.687      93.556     420.457
  P        2.848      93.321     418.873
  C        5.326      92.579     419.161
  O        4.407      93.457     418.523
  C        6.749      92.834     418.669
  O        6.780      93.013     417.243
  C        7.390      94.091     419.241
  O        7.885      93.880     420.554
  C        8.534      94.308     418.261
  O        9.652      93.478     418.621
  C        7.925      93.843     416.931
  N        9.391      97.746     414.046
  C       10.148      96.840     414.762
  N       11.490      96.979     414.676
  N        9.639      95.887     415.496
  C        8.285      95.849     415.464
  C        7.426      96.689     414.797
  C        8.002      97.761     414.013
  O        7.376      98.608     413.385
  N        6.117      96.332     414.998
  C        6.186      95.261     415.762
  N        7.482      94.936     416.087
  O        2.212      94.653     418.249
  O        2.172      92.090     418.371
  H        9.829      93.633     419.570
  H        1.868      94.470     417.354
  H        9.835      98.465     413.505
  H        5.334      94.686     416.106
  H        8.624      93.227     416.353
  H        8.897      95.342     418.257
  H       11.950      97.644     414.074
  H        6.696      94.941     419.196
  H       12.062      96.301     415.166
  H        7.358      91.956     418.924
  H        5.051      91.543     418.954
  H        5.254      92.717     420.245
  P        7.314      94.828     421.714
  C        9.367      95.530     423.135
  O        8.297      94.621     422.961
  O        5.965      94.088     422.158
  O        7.066      96.238     421.296
  H        5.321      94.735     422.501
  H        9.045      96.560     422.965
  H       10.178      95.277     422.446
  H        9.736      95.444     424.160
  H        1.388      93.645     422.042
  H        0.963      92.497     420.794
  H        0.743      94.208     420.518

 3  4  5  6  7  8  9  10  11  12  23  26  30  31  33  0
 6-311+G(2d,p)
 ****
 35  36  37  38 0
 6-311+G(2d,p)
 ****
 1  2  13  14  15  16  17  18  19  20  21  22  24  25  27  28  29 0
 3-21G
 ****
 32  34  39  40  41  42  43  44  45  46  47  48  49 0
 3-21G
 ****


