%nproc=1
%NoSave
%Mem=1900MB
#P OB98/GEN NMR

erre ene a

0 1
  C       34.983     -73.565      11.866
  O       34.476     -72.347      12.374
  H       35.795     -73.365      11.164
  H       35.372     -74.157      12.698
  H       34.190     -74.134      11.369
  P       33.696     -71.401      11.339
  C       31.361     -72.541      11.305
  O       32.151     -71.458      11.775
  C       30.014     -72.572      12.029
  O       30.228     -72.258      13.430
  C       28.999     -71.564      11.477
  O       27.701     -72.161      11.490
  C       29.055     -70.423      12.478
  O       27.852     -69.664      12.497
  C       29.347     -71.171      13.775
  N       29.755     -70.228      18.776
  C       29.144     -71.217      18.090
  N       29.087     -71.400      16.754
  C       29.795     -70.449      16.118
  C       30.469     -69.379      16.680
  C       30.425     -69.278      18.080
  N       31.014     -68.253      18.785
  N       31.045     -68.598      15.694
  C       30.724     -69.191      14.561
  N       29.967     -70.310      14.766
  O       33.738     -72.265       9.989
  O       34.266     -70.037      11.149
  H       27.616     -69.439      11.573
  H       34.611     -72.161       9.565
  H       28.625     -71.958      18.694
  H       31.003     -68.849      13.574
  H       28.440     -71.591      14.231
  H       29.881     -69.748      12.223
  H       29.238     -71.235      10.464
  H       29.618     -73.594      11.991
  H       31.896     -73.478      11.489
  H       30.885     -68.229      19.783
  H       31.465     -67.503      18.279
  H       31.198     -72.427      10.227
  P       27.082     -72.575      10.068
  C       28.237     -74.848       9.604
  O       27.042     -74.177       9.974
  O       28.227     -72.161       9.030
  O       25.790     -71.890       9.757
  H       27.844     -71.634       8.304
  H       28.062     -75.903       9.583
  H       29.005     -74.628      10.316
  H       28.546     -74.518       8.634

 6  7  8  9  10  11  12  13  14  15  25  28  32  33  34  35 0
 6-311+G(2d,p)
 ****
 36  39  40 0
 6-311+G(2d,p)
 ****
 1  2  3  4  5  16  17  18  19  20  21  22  23  24 0
 3-21G
 ****
 26  27  29  30  31  37  38  41  42  43  44  45  46  47 0
 3-21G
 ****
 48 0
 3-21G
 ****


