%nproc=1
%NoSave
%Mem=1900MB
#P OB98/GEN NMR

erre ene a

0 1
  C       69.272     248.088    -534.204
  O       69.719     248.528    -535.474
  H       68.548     248.795    -533.791
  H       68.781     247.113    -534.324
  H       70.120     247.971    -533.521
  P       70.497     249.929    -535.507
  C       68.783     250.975    -537.157
  O       70.139     250.609    -536.920
  C       68.630     251.512    -538.581
  O       69.566     252.583    -538.806
  C       68.901     250.492    -539.680
  O       67.792     249.636    -539.897
  C       69.141     251.413    -540.866
  O       67.875     251.868    -541.385
  C       69.902     252.577    -540.226
  N       73.839     252.895    -543.485
  C       72.510     253.130    -543.634
  N       71.531     253.046    -542.718
  C       72.034     252.693    -541.525
  C       73.358     252.436    -541.205
  C       74.287     252.541    -542.257
  N       75.630     252.238    -542.099
  N       73.482     252.088    -539.878
  C       72.250     252.105    -539.408
  N       71.342     252.472    -540.361
  O       72.032     249.485    -535.675
  O       70.302     250.792    -534.307
  H       68.048     252.223    -542.279
  H       72.460     249.475    -534.801
  H       72.201     253.425    -544.644
  H       71.972     251.861    -538.391
  H       69.598     253.551    -540.635
  H       69.671     250.920    -541.692
  H       69.819     249.917    -539.488
  H       67.618     251.928    -538.675
  H       68.487     251.751    -536.443
  H       76.075     251.904    -542.951
  H       75.849     251.733    -541.249
  H       68.150     250.091    -537.014
  P       67.519     248.465    -538.838
  C       68.215     246.461    -540.319
  O       67.147     247.154    -539.683
  O       66.145     248.899    -538.166
  O       68.599     248.285    -537.799
  H       66.243     248.964    -537.194
  H       67.827     245.613    -540.844
  H       68.917     246.134    -539.581
  H       68.703     247.116    -541.010

 6  7  8  9  10  11  12  13  14  15  25  28  32  33  34  35 0
 6-311+G(2d,p)
 ****
 36  39  40 0
 6-311+G(2d,p)
 ****
 1  2  3  4  5  16  17  18  19  20  21  22  23  24 0
 3-21G
 ****
 26  27  29  30  31  37  38  41  42  43  44  45  46  47  48 0
 3-21G
 ****


