%nproc=1
%NoSave
%Mem=1900MB
#P OB98/GEN NMR

erre ene a

0 1
  C       85.630     383.802    -435.453
  O       84.936     383.545    -434.225
  P       85.328     384.475    -432.966
  C       86.527     382.907    -431.283
  O       85.318     383.566    -431.643
  C       86.261     381.546    -430.620
  O       84.991     381.546    -429.924
  C       86.242     380.377    -431.612
  O       86.774     379.236    -430.935
  C       84.755     380.164    -431.848
  O       84.501     378.857    -432.349
  C       84.201     380.458    -430.437
  N       82.775     380.768    -430.444
  C       81.916     379.846    -429.840
  O       82.358     378.782    -429.389
  N       80.570     380.120    -429.784
  C       80.112     381.200    -430.345
  N       78.776     381.419    -430.264
  C       80.978     382.174    -431.046
  C       82.269     381.907    -431.049
  O       84.047     385.417    -432.789
  O       86.568     385.277    -433.185
  H       83.529     378.693    -432.308
  H       84.320     386.350    -432.725
  H       80.549     383.057    -431.513
  H       82.982     382.556    -431.543
  H       84.350     379.592    -429.776
  H       84.370     380.895    -432.573
  H       86.809     380.573    -432.523
  H       87.047     381.378    -429.874
  H       78.215     380.734    -429.769
  H       87.095     383.539    -430.595
  H       78.313     382.221    -430.663
  H       87.150     382.797    -432.177
  P       88.274     378.796    -431.261
  C       87.675     376.340    -431.740
  O       88.346     377.238    -430.865
  O       89.073     379.453    -430.022
  O       88.871     379.190    -432.568
  H       90.031     379.319    -430.142
  H       87.901     375.317    -431.431
  H       88.021     376.485    -432.770
  H       86.590     376.494    -431.678
  H       85.284     383.125    -436.206
  H       86.681     383.664    -435.305
  H       85.443     384.808    -435.765

 3  4  5  6  7  8  9  10  11  12  13  21  23  27  28  29  30  32 0
 6-311+G(2d,p)
 ****
 34  35 0
 6-311+G(2d,p)
 ****
 1  2  14  15  16  17  18  19  20  22  24  25  26 0
 3-21G
 ****
 31  33  36  37  38  39  40  41  42  43  44  45  46 0
 3-21G
 ****


