%nproc=1
%NoSave
%Mem=1900MB
#P OB98/GEN NMR

erre ene a

0 1
  C      332.699      35.598    -128.224
  O      333.941      35.754    -127.570
  H      331.918      36.047    -127.604
  H      332.473      34.535    -128.350
  H      332.704      36.095    -129.197
  P      335.283      35.344    -128.350
  C      335.375      32.890    -127.548
  O      335.184      33.772    -128.646
  C      336.356      31.771    -127.915
  O      335.766      30.970    -128.988
  C      337.726      32.267    -128.429
  O      338.697      31.272    -128.061
  C      337.484      32.280    -129.926
  O      338.667      32.442    -130.664
  C      336.722      30.952    -130.071
  N      336.051      30.753    -131.347
  C      336.752      30.087    -132.349
  O      337.898      29.656    -132.233
  N      336.086      29.929    -133.535
  C      334.812      30.349    -133.806
  O      334.259      30.149    -134.884
  C      334.127      31.051    -132.712
  C      334.763      31.216    -131.553
  O      336.560      35.791    -127.721
  O      335.086      35.988    -129.804
  H      335.608      36.809    -129.871
  H      338.436      32.667    -131.592
  H      336.577      29.446    -134.271
  H      333.122      31.406    -132.898
  H      334.280      31.720    -130.717
  H      337.400      30.114    -129.883
  H      336.848      33.127    -130.193
  H      338.017      33.230    -128.004
  H      336.475      31.106    -127.053
  H      334.407      32.461    -127.278
  H      335.762      33.459    -126.695
  P      339.711      31.435    -126.829
  C      341.731      32.241    -128.238
  O      340.791      32.560    -127.217
  O      340.321      30.151    -126.374
  O      338.849      32.116    -125.661
  H      339.229      31.876    -124.794
  H      342.385      33.073    -128.393
  H      341.210      32.022    -129.147
  H      342.304      31.388    -127.941

 6  7  8  9  10  11  12  13  14  15  16  27  31  32  33  34  35 0
 6-311+G(2d,p)
 ****
 36  37 0
 6-311+G(2d,p)
 ****
 1  2  3  4  5  17  18  19  20  21  22  23  24  25 0
 3-21G
 ****
 26  28  29  30  38  39  40  41  42  43  44  45 0
 3-21G
 ****


