%nproc=1
%NoSave
%Mem=1900MB
#P OB98/GEN NMR

erre ene a

0 1
  C     -436.452      15.459     131.673
  O     -436.843      15.994     132.944
  P     -438.219      15.428     133.560
  C     -437.052      14.142     135.497
  O     -437.883      14.060     134.346
  C     -436.964      12.799     136.232
  O     -438.277      12.421     136.692
  C     -436.435      11.640     135.376
  O     -435.621      10.795     136.201
  C     -437.687      10.860     135.025
  O     -437.406       9.505     134.693
  C     -438.496      11.051     136.305
  N     -442.274       7.859     137.369
  C     -440.974       7.871     137.826
  N     -440.626       6.869     138.666
  N     -440.095       8.771     137.488
  C     -440.593       9.725     136.671
  C     -441.864       9.837     136.155
  C     -442.818       8.806     136.502
  O     -443.968       8.716     136.094
  N     -441.990      10.948     135.354
  C     -440.794      11.509     135.376
  N     -439.909      10.798     136.155
  O     -439.021      14.942     132.266
  O     -438.988      16.434     134.337
  H     -438.236       9.107     134.372
  H     -439.887      15.383     132.226
  H     -442.909       7.130     137.641
  H     -440.514      12.400     134.844
  H     -438.121      10.408     137.114
  H     -438.177      11.328     134.164
  H     -441.270       6.179     139.012
  H     -435.870      11.949     134.487
  H     -439.684       6.886     139.044
  H     -436.332      12.935     137.112
  H     -437.454      14.893     136.181
  H     -436.056      14.470     135.182
  P     -434.032      11.009     136.106
  C     -434.193      12.231     138.398
  O     -433.699      12.244     137.071
  O     -433.831      11.613     134.638
  O     -433.234       9.772     136.324
  H     -432.944      11.400     134.302
  H     -434.600      11.258     138.679
  H     -434.982      12.983     138.496
  H     -433.375      12.480     139.083
  H     -435.529      15.906     131.366
  H     -437.210      15.672     130.948
  H     -436.325      14.400     131.756

 3  4  5  6  7  8  9  10  11  12  23  26  30  31  33  0
 6-311+G(2d,p)
 ****
 35  36  37  38 0
 6-311+G(2d,p)
 ****
 1  2  13  14  15  16  17  18  19  20  21  22  24  25  27  28  29 0
 3-21G
 ****
 32  34  39  40  41  42  43  44  45  46  47  48  49 0
 3-21G
 ****


