%nproc=1
%NoSave
%Mem=1900MB
#P OB98/GEN NMR

erre ene a

0 1
  C      158.259     -82.789     -56.412
  O      158.546     -81.662     -57.208
  H      159.112     -83.472     -56.457
  H      157.380     -83.314     -56.794
  H      158.099     -82.497     -55.372
  P      157.442     -80.506     -57.362
  C      159.340     -78.785     -57.209
  O      158.234     -79.244     -57.974
  C      159.258     -77.277     -56.973
  O      159.295     -76.583     -58.251
  C      157.981     -76.833     -56.244
  O      158.316     -75.927     -55.192
  C      157.193     -76.099     -57.318
  O      156.272     -75.152     -56.785
  C      158.331     -75.519     -58.164
  N      157.870     -75.078     -59.474
  C      157.538     -73.725     -59.587
  O      157.649     -72.976     -58.615
  N      157.040     -73.263     -60.777
  C      156.843     -74.091     -61.755
  N      156.318     -73.574     -62.898
  C      157.152     -75.533     -61.669
  C      157.661     -75.954     -60.512
  O      156.662     -80.222     -56.124
  O      156.526     -80.974     -58.588
  H      155.653     -75.624     -56.186
  H      155.651     -80.528     -58.521
  H      156.964     -76.182     -62.512
  H      157.919     -76.996     -60.355
  H      158.805     -74.670     -57.655
  H      156.623     -76.827     -57.909
  H      157.413     -77.665     -55.830
  H      160.156     -76.961     -56.428
  H      156.114     -72.582     -62.911
  H      160.264     -79.040     -57.741
  H      156.099     -74.124     -63.714
  H      159.328     -79.298     -56.242
  P      158.547     -76.578     -53.743
  C      160.983     -76.048     -53.023
  O      159.616     -75.673     -52.959
  O      159.344     -77.927     -54.068
  O      157.279     -76.852     -53.005
  H      158.771     -78.699     -53.900
  H      161.570     -75.355     -52.456
  H      161.308     -76.040     -54.043
  H      161.102     -77.031     -52.618

 6  7  8  9  10  11  12  13  14  15  16  26  30  31  32  33  35 0
 6-311+G(2d,p)
 ****
 37  38 0
 6-311+G(2d,p)
 ****
 1  2  3  4  5  17  18  19  20  21  22  23  24  25 0
 3-21G
 ****
 27  28  29  34  36  39  40  41  42  43  44  45  46 0
 3-21G
 ****


