%nproc=1
%NoSave
%Mem=1900MB
#P OB98/GEN NMR

erre ene a

0 1
  C       72.038     -61.653    -155.034
  O       71.252     -62.516    -155.863
  P       70.770     -63.911    -155.234
  C       73.027     -65.181    -155.406
  O       72.032     -64.634    -154.553
  C       74.082     -65.963    -154.606
  O       74.761     -65.094    -153.656
  C       73.501     -67.127    -153.800
  O       74.499     -68.151    -153.699
  C       73.296     -66.513    -152.429
  O       73.170     -67.510    -151.415
  C       74.542     -65.633    -152.335
  N       77.023     -62.700    -149.062
  C       77.484     -63.723    -149.871
  N       78.809     -63.979    -149.821
  N       76.716     -64.433    -150.656
  C       75.417     -64.040    -150.624
  C       74.837     -63.050    -149.865
  C       75.697     -62.290    -148.981
  O       75.342     -61.383    -148.234
  N       73.486     -62.968    -150.093
  C       73.251     -63.912    -150.984
  N       74.394     -64.565    -151.364
  O       70.482     -64.808    -156.530
  O       69.554     -63.799    -154.374
  H       73.900     -68.157    -151.549
  H       69.521     -64.929    -156.640
  H       77.659     -62.196    -148.469
  H       72.280     -64.165    -151.385
  H       75.434     -66.204    -152.047
  H       72.385     -65.902    -152.424
  H       79.465     -63.438    -149.278
  H       72.583     -67.558    -154.211
  H       79.180     -64.696    -150.434
  H       74.842     -66.338    -155.303
  H       73.520     -64.384    -155.971
  H       72.544     -65.817    -156.154
  P       74.154     -69.572    -154.360
  C       73.555     -70.931    -152.228
  O       73.088     -70.268    -153.390
  O       75.488     -70.429    -154.129
  O       73.769     -69.512    -155.804
  H       75.557     -71.133    -154.798
  H       73.362     -70.299    -151.356
  H       74.626     -71.153    -152.285
  H       73.006     -71.871    -152.115
  H       72.287     -60.766    -155.578
  H       72.936     -62.158    -154.744
  H       71.478     -61.391    -154.160

 3  4  5  6  7  8  9  10  11  12  23  26  30  31 0
 6-311+G(2d,p)
 ****
 33  35  36  37  38 0
 6-311+G(2d,p)
 ****
 1  2  13  14  15  16  17  18  19  20  21  22  24  25 0
 3-21G
 ****
 27  28  29  32  34  39  40  41  42  43  44  45  46  47  48  49 0
 3-21G
 ****


