%nproc=1
%NoSave
%Mem=1900MB
#P OB98/GEN NMR

erre ene a

0 1
  C      -85.033      63.279     -18.429
  O      -84.572      62.230     -17.597
  P      -85.576      61.519     -16.573
  C      -84.584      63.063     -14.727
  O      -85.737      62.502     -15.317
  C      -84.945      63.902     -13.493
  O      -86.024      64.794     -13.863
  C      -85.457      63.100     -12.302
  O      -85.353      63.911     -11.130
  C      -86.914      62.907     -12.658
  O      -87.711      62.589     -11.522
  C      -87.266      64.243     -13.363
  N      -88.218      64.037     -14.469
  C      -89.379      63.327     -14.177
  O      -89.663      62.947     -13.042
  N      -90.163      62.996     -15.248
  C      -89.869      63.262     -16.553
  O      -90.405      62.704     -17.502
  C      -88.766      64.212     -16.774
  C      -87.984      64.532     -15.739
  O      -84.701      60.308     -16.001
  O      -86.855      61.045     -17.172
  H      -87.314      61.785     -11.112
  H      -84.903      59.487     -16.487
  H      -90.927      62.359     -15.054
  H      -88.593      64.568     -17.780
  H      -87.131      65.189     -15.882
  H      -87.712      64.959     -12.662
  H      -87.002      62.075     -13.368
  H      -84.944      62.145     -12.149
  H      -84.082      64.514     -13.206
  H      -84.061      63.674     -15.469
  H      -83.887      62.273     -14.429
  P      -84.645      63.277      -9.838
  C      -86.917      63.101      -8.653
  O      -85.767      62.406      -9.091
  O      -83.889      64.228      -8.973
  O      -83.688      62.153     -10.466
  H      -83.000      61.910      -9.820
  H      -87.767      62.413      -8.655
  H      -87.146      63.950      -9.304
  H      -86.754      63.460      -7.634
  H      -84.228      63.629     -19.041
  H      -85.395      64.083     -17.822
  H      -85.825      62.918     -19.052

 3  4  5  6  7  8  9  10  11  12  13  23  28  29  30  31  32 0
 6-311+G(2d,p)
 ****
 33  34 0
 6-311+G(2d,p)
 ****
 1  2  14  15  16  17  18  19  20  21  22  24  25  26  27 0
 3-21G
 ****
 35  36  37  38  39  40  41  42  43  44  45 0
 3-21G
 ****


