%nproc=1
%NoSave
%Mem=1900MB
#P OB98/GEN NMR

erre ene a

0 1
  C      -23.132      59.861      17.980
  O      -22.738      59.312      16.739
  H      -23.622      60.821      17.797
  H      -22.260      60.025      18.619
  H      -23.839      59.192      18.477
  P      -21.962      57.909      16.790
  C      -19.478      57.246      16.972
  O      -20.417      58.315      16.966
  C      -18.062      57.779      16.754
  O      -17.913      58.135      15.357
  C      -17.744      59.022      17.588
  O      -16.391      58.954      18.035
  C      -17.898      60.163      16.599
  O      -17.127      61.305      16.962
  C      -17.467      59.500      15.292
  N      -17.608      63.891      12.700
  C      -16.840      63.473      13.727
  N      -16.857      62.276      14.351
  C      -17.754      61.455      13.776
  C      -18.609      61.741      12.726
  C      -18.518      63.033      12.181
  N      -19.315      63.476      11.151
  N      -19.415      60.654      12.451
  C      -19.042      59.723      13.309
  N      -18.053      60.168      14.142
  O      -22.251      56.968      15.669
  O      -22.347      57.378      18.248
  H      -17.187      61.961      16.238
  H      -22.287      58.087      18.914
  H      -16.121      64.196      14.105
  H      -19.464      58.726      13.377
  H      -16.379      59.508      15.154
  H      -18.950      60.469      16.550
  H      -18.411      59.133      18.444
  H      -17.348      56.971      16.954
  H      -19.723      56.526      16.184
  H      -19.174      64.414      10.810
  H      -19.987      62.845      10.739
  H      -19.549      56.741      17.939
  P      -16.105      58.455      19.531
  C      -16.127      59.454      21.910
  O      -16.492      59.637      20.546
  O      -14.777      57.819      19.764
  O      -17.289      57.400      19.774
  H      -16.945      56.656      20.304
  H      -16.438      60.305      22.480
  H      -15.065      59.344      21.983
  H      -16.604      58.576      22.292

 6  7  8  9  10  11  12  13  14  15  25  28  32  33  34  35 0
 6-311+G(2d,p)
 ****
 36  39  40 0
 6-311+G(2d,p)
 ****
 1  2  3  4  5  16  17  18  19  20  21  22  23  24 0
 3-21G
 ****
 26  27  29  30  31  37  38  41  42  43  44  45  46  47 0
 3-21G
 ****
 48 0
 3-21G
 ****


