%nproc=1
%NoSave
%Mem=1900MB
#P OB98/GEN NMR

erre ene a

0 1
  C      185.225     -72.408      39.939
  O      185.341     -72.818      38.573
  P      184.037     -72.581      37.662
  C      185.404     -72.768      35.467
  O      184.307     -73.257      36.227
  C      185.850     -73.805      34.438
  O      186.430     -74.971      35.092
  C      184.712     -74.306      33.518
  O      185.297     -74.534      32.211
  C      184.335     -75.618      34.176
  O      183.563     -76.475      33.352
  C      185.725     -76.126      34.567
  N      186.591     -81.115      35.283
  C      186.683     -80.333      34.181
  N      186.436     -79.004      34.078
  C      186.038     -78.493      35.262
  C      185.892     -79.176      36.464
  C      186.181     -80.558      36.451
  N      186.058     -81.362      37.547
  N      185.444     -78.310      37.455
  C      185.272     -77.153      36.835
  N      185.699     -77.198      35.529
  O      184.059     -71.007      37.357
  O      182.755     -73.013      38.326
  H      182.908     -75.934      32.852
  H      183.455     -70.530      37.961
  H      187.013     -80.829      33.280
  H      184.846     -76.264      37.280
  H      186.282     -76.494      33.698
  H      183.736     -75.414      35.079
  H      183.880     -73.600      33.416
  H      186.650     -73.356      33.826
  H      186.235     -72.521      36.124
  H      186.281     -82.342      37.444
  H      185.749     -80.991      38.439
  H      185.104     -71.815      34.984
  P      184.726     -73.710      30.964
  C      187.065     -73.485      29.916
  O      185.765     -74.035      29.774
  O      185.179     -72.219      31.376
  O      183.275     -73.860      30.674
  H      186.122     -72.186      31.626
  H      187.682     -73.855      29.097
  H      187.510     -73.814      30.863
  H      187.018     -72.387      29.884
  H      186.143     -72.609      40.451
  H      184.429     -72.949      40.407
  H      185.016     -71.359      39.980

 3  4  5  6  7  8  9  10  11  12  22  25  29  30  31  32 0
 6-311+G(2d,p)
 ****
 33  36  37 0
 6-311+G(2d,p)
 ****
 1  2  13  14  15  16  17  18  19  20  21  23  24  26 0
 3-21G
 ****
 27  28  34  35  38  39  40  41  42  43  44  45  46  47  48 0
 3-21G
 ****


