%nproc=1
%NoSave
%Mem=1900MB
#P OB98/GEN NMR

erre ene a

0 1
  C     -896.274    -280.259       2.611
  O     -896.413    -279.655       3.880
  H     -897.117    -280.932       2.443
  H     -895.349    -280.841       2.565
  H     -896.271    -279.496       1.828
  P     -895.224    -278.707       4.373
  C     -894.629    -280.619       6.035
  O     -894.153    -279.648       5.109
  C     -893.827    -281.907       5.873
  O     -893.932    -282.386       4.509
  C     -892.338    -281.751       6.139
  O     -892.028    -281.729       7.520
  C     -891.789    -282.989       5.445
  O     -891.850    -284.146       6.285
  C     -892.725    -283.139       4.231
  N     -892.084    -282.698       2.991
  C     -891.051    -283.516       2.535
  O     -890.685    -284.535       3.113
  N     -890.423    -283.086       1.399
  C     -890.673    -281.931       0.722
  O     -890.027    -281.579      -0.254
  C     -891.769    -281.103       1.262
  C     -892.409    -281.522       2.361
  O     -895.886    -277.875       5.568
  O     -894.654    -277.813       3.318
  H     -896.063    -276.960       5.276
  H     -891.367    -284.851       5.812
  H     -889.663    -283.668       1.051
  H     -892.001    -280.173       0.746
  H     -893.207    -280.917       2.788
  H     -893.031    -284.181       4.114
  H     -890.749    -282.843       5.167
  H     -891.957    -280.856       5.625
  H     -894.256    -282.674       6.540
  H     -895.684    -280.834       5.832
  H     -894.539    -280.223       7.046
  P     -891.549    -280.334       8.157
  C     -889.315    -281.532       8.846
  O     -889.954    -280.410       8.254
  O     -892.062    -280.500       9.660
  O     -892.097    -279.145       7.428
  H     -892.104    -281.441       9.923
  H     -888.254    -281.395       8.816
  H     -889.576    -282.418       8.305
  H     -889.633    -281.628       9.863

 6  7  8  9  10  11  12  13  14  15  16  27  31  32  33  34  35 0
 6-311+G(2d,p)
 ****
 36  37 0
 6-311+G(2d,p)
 ****
 1  2  3  4  5  17  18  19  20  21  22  23  24  25 0
 3-21G
 ****
 26  28  29  30  38  39  40  41  42  43  44  45 0
 3-21G
 ****


