%nproc=1
%NoSave
%Mem=1900MB
#P OB98/GEN NMR

erre ene a

0 1
  C      853.052    -126.630     -22.408
  O      854.021    -125.596     -22.488
  P      854.908    -125.434     -23.812
  C      855.341    -122.979     -23.071
  O      855.880    -124.182     -23.576
  C      856.456    -122.063     -22.520
  O      856.954    -122.661     -21.303
  C      857.664    -121.910     -23.435
  O      858.397    -120.749     -23.025
  C      858.467    -123.158     -23.113
  O      859.832    -123.035     -23.487
  C      858.202    -123.340     -21.592
  N      858.114    -124.763     -21.228
  C      859.282    -125.510     -21.322
  O      860.373    -125.018     -21.617
  N      859.149    -126.859     -21.148
  C      857.968    -127.511     -20.939
  O      857.820    -128.723     -21.096
  C      856.809    -126.663     -20.610
  C      856.930    -125.339     -20.794
  O      853.844    -124.893     -24.892
  O      855.580    -126.679     -24.275
  H      860.285    -123.857     -23.197
  H      853.507    -125.636     -25.422
  H      859.966    -127.418     -21.358
  H      855.897    -127.135     -20.291
  H      856.085    -124.689     -20.615
  H      858.999    -122.876     -20.988
  H      858.039    -124.004     -23.667
  H      857.422    -121.846     -24.500
  H      856.027    -121.087     -22.272
  H      854.610    -123.203     -22.289
  H      854.806    -122.445     -23.859
  P      858.834    -119.698     -24.155
  C      857.633    -117.651     -23.190
  O      858.878    -118.267     -23.443
  O      858.070    -119.762     -25.435
  O      860.387    -120.034     -24.378
  H      860.681    -119.667     -25.227
  H      857.734    -117.007     -22.304
  H      856.851    -118.387     -23.000
  H      857.354    -117.035     -24.041
  H      852.560    -126.585     -21.459
  H      853.534    -127.579     -22.515
  H      852.332    -126.505     -23.189

 3  4  5  6  7  8  9  10  11  12  13  23  28  29  30  31  32 0
 6-311+G(2d,p)
 ****
 33  34 0
 6-311+G(2d,p)
 ****
 1  2  14  15  16  17  18  19  20  21  22  24  25  26  27 0
 3-21G
 ****
 35  36  37  38  39  40  41  42  43  44  45 0
 3-21G
 ****


