%nproc=1
%NoSave
%Mem=1900MB
#P OB98/GEN NMR

erre ene a

0 1
  C     -149.552    -507.150      61.142
  O     -148.498    -506.215      61.316
  P     -148.419    -505.007      60.269
  C     -147.551    -504.853      57.812
  O     -147.502    -505.518      59.061
  C     -147.080    -505.794      56.700
  O     -148.109    -506.771      56.410
  C     -146.762    -505.103      55.383
  O     -145.467    -504.544      55.425
  C     -146.914    -506.250      54.392
  O     -145.724    -507.071      54.374
  C     -148.109    -507.025      54.972
  N     -152.006    -508.645      52.190
  C     -150.793    -509.234      52.439
  N     -150.594    -510.463      51.898
  N     -149.838    -508.683      53.152
  C     -150.167    -507.451      53.615
  C     -151.333    -506.750      53.423
  C     -152.395    -507.401      52.683
  O     -153.533    -506.955      52.521
  N     -151.292    -505.521      54.030
  C     -150.109    -505.500      54.618
  N     -149.388    -506.650      54.407
  O     -147.507    -503.930      61.027
  O     -149.737    -504.437      59.848
  H     -145.010    -506.574      53.930
  H     -148.058    -503.241      61.446
  H     -152.709    -509.123      51.657
  H     -149.731    -504.680      55.209
  H     -148.004    -508.102      54.839
  H     -147.067    -505.894      53.372
  H     -151.262    -510.943      51.318
  H     -147.516    -504.328      55.168
  H     -149.696    -510.908      52.065
  H     -146.208    -506.341      57.076
  H     -146.896    -503.980      57.845
  H     -148.581    -504.509      57.623
  P     -145.145    -503.341      54.407
  C     -144.603    -503.195      51.874
  O     -144.671    -504.008      53.026
  O     -143.801    -502.701      54.999
  O     -146.227    -502.325      54.287
  H     -143.815    -501.739      54.870
  H     -143.814    -503.584      51.216
  H     -144.364    -502.148      52.121
  H     -145.553    -503.225      51.343
  H     -149.492    -507.901      61.902
  H     -149.466    -507.609      60.179
  H     -150.492    -506.645      61.214

 3  4  5  6  7  8  9  10  11  12  23  26  30  31 0
 6-311+G(2d,p)
 ****
 33  35  36  37  38 0
 6-311+G(2d,p)
 ****
 1  2  13  14  15  16  17  18  19  20  21  22  24  25 0
 3-21G
 ****
 27  28  29  32  34  39  40  41  42  43  44  45  46  47  48  49 0
 3-21G
 ****


