%nproc=1
%NoSave
%Mem=1900MB
#P OB98/GEN NMR

erre ene a

0 1
  C     -475.036     -67.442    -424.651
  O     -475.583     -66.535    -423.716
  H     -474.468     -68.208    -424.108
  H     -474.364     -66.924    -425.339
  H     -475.837     -67.933    -425.216
  P     -476.454     -65.323    -424.312
  C     -475.345     -63.280    -423.155
  O     -476.448     -64.168    -423.184
  C     -475.227     -62.620    -421.785
  O     -476.552     -62.188    -421.345
  C     -474.669     -63.550    -420.686
  O     -473.826     -62.789    -419.811
  C     -475.912     -63.973    -419.925
  O     -475.621     -64.393    -418.590
  C     -476.751     -62.700    -420.009
  N     -481.159     -60.416    -419.174
  C     -479.920     -59.878    -419.478
  N     -479.834     -58.534    -419.568
  N     -478.841     -60.612    -419.667
  C     -479.082     -61.945    -419.577
  C     -480.260     -62.597    -419.273
  C     -481.433     -61.776    -419.033
  O     -482.551     -62.180    -418.743
  N     -480.081     -63.956    -419.235
  C     -478.798     -64.135    -419.518
  N     -478.151     -62.939    -419.737
  O     -477.953     -65.891    -424.264
  O     -476.069     -64.861    -425.680
  H     -474.971     -65.122    -418.632
  H     -478.493     -65.498    -424.982
  H     -481.941     -59.806    -419.019
  H     -478.287     -65.083    -419.567
  H     -476.416     -61.929    -419.300
  H     -476.406     -64.809    -420.444
  H     -480.611     -57.919    -419.463
  H     -474.111     -64.405    -421.078
  H     -478.931     -58.127    -419.800
  H     -474.617     -61.709    -421.869
  H     -475.484     -62.505    -423.917
  H     -474.425     -63.836    -423.373
  P     -472.272     -62.664    -420.201
  C     -471.744     -62.910    -417.660
  O     -471.443     -62.239    -418.890
  O     -472.231     -61.348    -421.106
  O     -471.736     -63.854    -420.948
  H     -472.084     -61.589    -422.035
  H     -471.119     -62.526    -416.882
  H     -471.568     -63.959    -417.774
  H     -472.771     -62.746    -417.406

 6  7  8  9  10  11  12  13  14  15  26  29  33  34 0
 6-311+G(2d,p)
 ****
 36  38  39  40  41 0
 6-311+G(2d,p)
 ****
 1  2  3  4  5  16  17  18  19  20  21  22  23  24  25 0
 3-21G
 ****
 27  28  30  31  32  35  37  42  43  44  45  46  47 0
 3-21G
 ****
 48  49 0
 3-21G
 ****


