%nproc=1
%NoSave
%Mem=1900MB
#P OB98/GEN NMR

erre ene a

0 1
  C      137.109     298.384    -210.440
  O      136.342     297.202    -210.551
  H      136.595     299.182    -210.987
  H      138.095     298.241    -210.888
  H      137.212     298.688    -209.393
  P      136.792     295.916    -209.707
  C      135.522     296.415    -207.512
  O      135.607     295.598    -208.677
  C      134.373     297.411    -207.664
  O      134.666     298.355    -208.719
  C      133.044     296.771    -208.029
  O      132.448     296.146    -206.916
  C      132.284     297.979    -208.571
  O      131.738     298.759    -207.498
  C      133.401     298.749    -209.305
  N      133.394     298.530    -210.748
  C      133.580     299.653    -211.550
  O      133.709     300.785    -211.099
  N      133.570     299.425    -212.900
  C      133.297     298.236    -213.520
  O      133.210     298.109    -214.737
  C      133.085     297.092    -212.617
  C      133.141     297.289    -211.298
  O      138.155     295.974    -209.107
  O      136.677     294.715    -210.767
  H      131.249     299.499    -207.908
  H      137.571     294.455    -211.060
  H      133.692     300.230    -213.498
  H      132.874     296.129    -213.074
  H      132.982     296.456    -210.622
  H      133.301     299.825    -209.120
  H      131.456     297.687    -209.216
  H      133.183     296.053    -208.851
  H      134.283     297.978    -206.721
  H      136.464     296.954    -207.399
  H      135.361     295.771    -206.644
  P      131.335     295.012    -207.136
  C      132.908     293.155    -206.286
  O      131.649     293.816    -206.108
  O      131.120     294.588    -208.554
  O      130.007     295.660    -206.528
  H      129.327     295.728    -207.227
  H      133.012     292.382    -205.553
  H      133.702     293.863    -206.172
  H      132.950     292.726    -207.265

 6  7  8  9  10  11  12  13  14  15  16  26  31  32  33  34  35 0
 6-311+G(2d,p)
 ****
 36  37 0
 6-311+G(2d,p)
 ****
 1  2  3  4  5  17  18  19  20  21  22  23  24  25 0
 3-21G
 ****
 27  28  29  30  38  39  40  41  42  43  44  45 0
 3-21G
 ****


