%nproc=1
%NoSave
%Mem=1900MB
#P OB98/GEN NMR

erre ene a

0 1
  C      608.161     -29.171     273.457
  O      606.755     -29.298     273.375
  H      608.574     -29.165     272.443
  H      608.580     -30.022     274.003
  H      608.434     -28.238     273.957
  P      605.942     -29.093     274.740
  C      605.484     -30.557     276.867
  O      606.201     -30.394     275.652
  C      605.658     -31.981     277.390
  O      605.129     -32.941     276.452
  C      607.106     -32.411     277.563
  O      607.726     -31.796     278.674
  C      606.937     -33.915     277.722
  O      606.628     -34.278     279.073
  C      605.738     -34.210     276.787
  N      606.142     -34.959     275.612
  C      606.263     -36.342     275.792
  O      606.015     -36.847     276.889
  N      606.699     -37.107     274.739
  C      607.015     -36.535     273.619
  N      607.476     -37.352     272.630
  C      606.902     -35.083     273.387
  C      606.463     -34.360     274.417
  O      604.425     -29.273     274.269
  O      606.213     -27.805     275.445
  H      606.671     -35.255     279.111
  H      604.274     -30.066     273.727
  H      607.168     -34.662     272.429
  H      606.354     -33.284     274.332
  H      604.974     -34.792     277.318
  H      607.848     -34.453     277.449
  H      607.670     -32.224     276.640
  H      605.099     -32.071     278.333
  H      607.586     -38.333     272.847
  H      604.426     -30.334     276.720
  H      607.824     -37.013     271.744
  H      605.880     -29.834     277.587
  P      609.312     -31.614     278.750
  C      611.231     -32.656     280.115
  O      609.864     -32.765     279.734
  O      609.788     -30.242     279.080
  O      609.804     -32.146     277.320
  H      609.571     -33.070     277.122
  H      611.486     -33.468     280.764
  H      611.386     -31.729     280.626
  H      611.848     -32.690     279.242

 6  7  8  9  10  11  12  13  14  15  16  26  30  31  32  33  35 0
 6-311+G(2d,p)
 ****
 37  38 0
 6-311+G(2d,p)
 ****
 1  2  3  4  5  17  18  19  20  21  22  23  24  25 0
 3-21G
 ****
 27  28  29  34  36  39  40  41  42  43  44  45  46 0
 3-21G
 ****


