%nproc=1
%NoSave
%Mem=1900MB
#P OB98/GEN NMR

erre ene a

0 1
  C     -738.398    -313.712     548.981
  O     -738.291    -312.289     548.957
  P     -736.888    -311.651     549.400
  C     -736.301    -310.161     547.348
  O     -736.022    -311.340     548.077
  C     -737.440    -310.420     546.333
  O     -738.662    -310.755     546.987
  C     -737.756    -309.199     545.478
  O     -736.788    -309.047     544.448
  C     -739.156    -309.544     544.956
  O     -739.100    -310.283     543.716
  C     -739.732    -310.423     546.093
  N     -740.842    -309.795     546.787
  C     -742.111    -310.009     546.253
  O     -742.239    -310.684     545.229
  N     -743.194    -309.428     546.867
  C     -743.023    -308.684     547.910
  N     -744.129    -308.126     548.471
  C     -741.694    -308.399     548.493
  C     -740.644    -308.978     547.891
  O     -736.103    -312.898     550.053
  O     -737.002    -310.507     550.352
  H     -740.018    -310.583     543.551
  H     -735.515    -312.589     550.771
  H     -741.590    -307.763     549.355
  H     -739.633    -308.819     548.253
  H     -740.106    -311.376     545.686
  H     -739.749    -308.639     544.775
  H     -737.801    -308.303     546.097
  H     -737.135    -311.265     545.689
  H     -745.034    -308.330     548.053
  H     -735.408    -309.809     546.822
  H     -744.093    -307.527     549.277
  H     -736.584    -309.376     548.053
  P     -735.619    -307.977     544.685
  C     -733.487    -309.381     544.372
  O     -734.402    -308.820     545.295
  O     -736.146    -307.179     545.985
  O     -735.297    -307.052     543.557
  H     -735.566    -306.426     546.165
  H     -732.610    -309.741     544.902
  H     -733.165    -308.623     543.638
  H     -733.956    -310.225     543.841
  H     -739.378    -314.001     548.665
  H     -738.225    -314.066     549.976
  H     -737.671    -314.136     548.320

 3  4  5  6  7  8  9  10  11  12  13  21  23  27  28  29  30  32 0
 6-311+G(2d,p)
 ****
 34  35 0
 6-311+G(2d,p)
 ****
 1  2  14  15  16  17  18  19  20  22  24  25  26 0
 3-21G
 ****
 31  33  36  37  38  39  40  41  42  43  44  45  46 0
 3-21G
 ****


