%nproc=1
%NoSave
%Mem=1900MB
#P OB98/GEN NMR

erre ene a

0 1
  C     -399.682     777.083    -976.665
  O     -399.805     776.210    -977.766
  H     -398.885     777.804    -976.867
  H     -399.411     776.508    -975.776
  H     -400.617     777.621    -976.490
  P     -400.952     775.076    -977.676
  C     -402.693     776.050    -979.372
  O     -402.333     775.842    -977.991
  C     -404.013     776.845    -979.419
  O     -405.134     775.983    -979.112
  C     -404.043     778.052    -978.447
  O     -404.600     779.184    -979.114
  C     -404.966     777.583    -977.342
  O     -405.599     778.657    -976.660
  C     -405.903     776.608    -978.102
  N     -406.472     775.605    -977.186
  C     -407.617     776.021    -976.443
  O     -408.070     777.170    -976.566
  N     -408.166     775.128    -975.547
  C     -407.637     773.972    -975.356
  N     -408.236     773.164    -974.446
  C     -406.426     773.536    -976.086
  C     -405.906     774.369    -976.968
  O     -401.036     774.766    -976.119
  O     -400.721     773.862    -978.532
  H     -406.112     779.160    -977.313
  H     -401.546     773.949    -975.927
  H     -405.990     772.545    -975.905
  H     -405.030     774.155    -977.532
  H     -406.740     777.180    -978.559
  H     -404.365     777.016    -976.594
  H     -403.070     778.308    -978.074
  H     -404.155     777.174    -980.471
  H     -409.060     773.496    -973.977
  H     -402.841     775.070    -979.844
  H     -407.853     772.232    -974.206
  H     -401.902     776.594    -979.878
  P     -403.903     780.604    -978.780
  C     -402.636     781.357    -980.944
  O     -402.569     780.709    -979.664
  O     -403.356     780.386    -977.305
  O     -404.817     781.735    -978.893
  H     -403.971     780.777    -976.656
  H     -401.669     781.343    -981.402
  H     -402.955     782.370    -980.815
  H     -403.334     780.841    -981.569

 6  7  8  9  10  11  12  13  14  15  16  26  30  31  32  33  35 0
 6-311+G(2d,p)
 ****
 37  38 0
 6-311+G(2d,p)
 ****
 1  2  3  4  5  17  18  19  20  21  22  23  24  25 0
 3-21G
 ****
 27  28  29  34  36  39  40  41  42  43  44  45  46 0
 3-21G
 ****


