%nproc=1
%NoSave
%Mem=1900MB
#P OB98/GEN NMR

erre ene a

0 1
  C      314.764      53.501     290.537
  O      316.005      53.638     289.856
  P      317.305      53.968     290.742
  C      318.422      51.670     291.201
  O      317.535      52.678     291.669
  C      319.488      51.362     292.251
  O      320.478      52.410     292.275
  C      318.962      51.262     293.675
  O      318.397      49.991     293.950
  C      320.241      51.458     294.468
  O      320.994      50.232     294.494
  C      320.977      52.515     293.636
  N      321.890      55.741     297.497
  C      322.157      54.426     297.340
  N      321.872      53.636     296.283
  C      321.207      54.322     295.342
  C      320.831      55.655     295.378
  C      321.206      56.385     296.516
  N      320.957      57.730     296.665
  N      320.160      56.002     294.226
  C      320.142      54.904     293.499
  N      320.770      53.864     294.124
  O      316.770      55.071     291.770
  O      318.487      54.444     289.970
  H      320.400      49.543     294.845
  H      317.515      55.607     292.105
  H      322.680      53.953     298.164
  H      319.695      54.819     292.519
  H      322.055      52.337     293.598
  H      320.057      51.740     295.510
  H      318.260      52.076     293.897
  H      319.990      50.432     291.960
  H      318.913      52.019     290.288
  H      321.418      58.215     297.416
  H      320.633      58.243     295.854
  H      317.847      50.769     290.966
  P      317.618      49.829     295.346
  C      315.559      51.108     294.410
  O      316.578      51.048     295.392
  O      318.728      50.228     296.429
  O      317.059      48.465     295.578
  H      318.532      49.801     297.285
  H      314.781      51.792     294.760
  H      315.113      50.128     294.241
  H      315.970      51.496     293.474
  H      313.991      53.284     289.830
  H      314.535      54.413     291.047
  H      314.833      52.703     291.247

 3  4  5  6  7  8  9  10  11  12  22  25  29  30  31  32 0
 6-311+G(2d,p)
 ****
 33  36  37 0
 6-311+G(2d,p)
 ****
 1  2  13  14  15  16  17  18  19  20  21  23  24  26 0
 3-21G
 ****
 27  28  34  35  38  39  40  41  42  43  44  45  46  47  48 0
 3-21G
 ****


