%nproc=1
%NoSave
%Mem=1900MB
#P OB98/GEN NMR

erre ene a

0 1
  C       54.268     -46.167      17.928
  O       52.983     -46.447      18.444
  H       54.923     -45.878      18.754
  H       54.215     -45.341      17.215
  H       54.683     -47.053      17.441
  P       51.874     -46.935      17.393
  C       51.176     -44.570      16.568
  O       50.805     -45.743      17.281
  C       50.066     -43.529      16.673
  O       50.499     -42.299      16.050
  C       48.775     -43.917      15.962
  O       47.999     -44.822      16.727
  C       48.117     -42.555      15.781
  O       47.411     -42.150      16.961
  C       49.319     -41.632      15.548
  N       48.004     -38.346      11.882
  C       47.728     -38.383      13.204
  N       48.136     -39.287      14.120
  C       48.913     -40.221      13.547
  C       49.273     -40.318      12.214
  C       48.786     -39.318      11.357
  N       49.036     -39.301      10.006
  N       50.044     -41.444      12.002
  C       50.154     -42.010      13.186
  N       49.492     -41.304      14.148
  O       51.090     -48.073      18.203
  O       52.406     -47.438      16.093
  H       47.185     -41.208      16.841
  H       51.463     -48.947      17.983
  H       47.094     -37.582      13.574
  H       50.691     -42.928      13.392
  H       49.227     -40.686      16.094
  H       47.397     -42.568      14.961
  H       48.998     -44.336      14.973
  H       49.879     -43.325      17.735
  H       51.334     -44.823      15.513
  H       52.111     -44.182      16.985
  H       48.634     -38.565       9.448
  H       49.528     -40.079       9.588
  P       47.657     -46.255      16.100
  C       46.178     -45.348      14.164
  O       46.247     -46.131      15.344
  O       47.322     -47.146      17.385
  O       48.748     -46.851      15.275
  H       48.088     -47.700      17.624
  H       45.178     -45.365      13.783
  H       46.846     -45.748      13.431
  H       46.457     -44.340      14.388

 6  7  8  9  10  11  12  13  14  15  25  28  32  33  34  35 0
 6-311+G(2d,p)
 ****
 36  37  40 0
 6-311+G(2d,p)
 ****
 1  2  3  4  5  16  17  18  19  20  21  22  23  24 0
 3-21G
 ****
 26  27  29  30  31  38  39 41  42  43  44  45  46  47  48 0
 3-21G
 ****


