%nproc=1
%NoSave
%Mem=1900MB
#P OB98/GEN NMR

erre ene a

0 1
  C       13.085    -253.261     439.694
  O       12.831    -251.875     439.474
  P       11.503    -251.519     438.643
  C       10.173    -249.356     438.110
  O       11.410    -249.922     438.515
  C       10.276    -247.830     438.024
  O       10.144    -247.200     439.317
  C       11.600    -247.343     437.453
  O       11.590    -247.453     436.039
  C       11.644    -245.898     437.945
  O       10.898    -245.030     437.072
  C       10.956    -245.997     439.321
  N       12.509    -243.493     443.452
  C       11.657    -243.088     442.436
  N       11.127    -241.851     442.551
  N       11.357    -243.832     441.406
  C       11.960    -245.048     441.421
  C       12.791    -245.570     442.379
  C       13.127    -244.737     443.522
  O       13.852    -245.057     444.455
  N       13.155    -246.859     442.078
  C       12.644    -247.067     440.878
  N       11.849    -246.020     440.465
  O       10.322    -251.899     439.652
  O       11.388    -252.270     437.359
  H       10.032    -245.436     436.887
  H        9.853    -252.690     439.329
  H       12.716    -242.876     444.217
  H       12.787    -247.955     440.289
  H       10.275    -245.154     439.488
  H       12.663    -245.513     437.977
  H       11.317    -241.224     443.326
  H       12.434    -247.916     437.890
  H       10.502    -241.536     441.825
  H        9.444    -247.478     437.394
  H        9.383    -249.637     438.810
  H        9.896    -249.779     437.136
  P       12.326    -248.707     435.375
  C       13.185    -249.300     432.999
  O       12.715    -248.300     433.873
  O       11.132    -249.766     435.188
  O       13.433    -249.282     436.194
  H       11.437    -250.654     435.466
  H       12.910    -249.031     431.974
  H       12.751    -250.285     433.232
  H       14.278    -249.359     433.065
  H       13.990    -253.373     440.254
  H       13.184    -253.759     438.752
  H       12.271    -253.690     440.241

 3  4  5  6  7  8  9  10  11  12  23  26  30  31 0
 6-311+G(2d,p)
 ****
 33  35  36  37  38 0
 6-311+G(2d,p)
 ****
 1  2  13  14  15  16  17  18  19  20  21  22  24  25 0
 3-21G
 ****
 27  28  29  32  34  39  40  41  42  43  44  45  46  47  48  49 0
 3-21G
 ****


