%nproc=1
%NoSave
%Mem=1900MB
#P OB98/GEN NMR

erre ene a

0 1
  C     -111.886      63.723     368.564
  O     -112.729      64.064     367.454
  P     -113.968      63.094     367.120
  C     -114.259      63.096     364.523
  O     -114.676      63.636     365.773
  C     -114.808      63.942     363.383
  O     -116.256      63.950     363.355
  C     -114.389      65.409     363.438
  O     -113.091      65.614     362.893
  C     -115.435      66.058     362.538
  O     -115.071      65.876     361.167
  C     -116.693      65.253     362.875
  N     -121.372      66.862     363.960
  C     -120.880      66.228     362.825
  N     -121.767      65.998     361.832
  N     -119.639      65.885     362.670
  C     -118.863      66.158     363.760
  C     -119.233      66.767     364.935
  C     -120.616      67.170     365.077
  O     -121.101      67.741     366.056
  N     -118.169      66.892     365.790
  C     -117.160      66.335     365.139
  N     -117.524      65.883     363.888
  O     -115.037      63.477     368.255
  O     -113.636      61.641     367.138
  H     -114.122      66.113     361.087
  H     -115.606      62.711     368.439
  H     -122.340      67.114     364.017
  H     -116.151      66.231     365.527
  H     -117.336      65.083     362.003
  H     -115.516      67.139     362.708
  H     -122.761      66.194     361.898
  H     -114.481      65.806     364.460
  H     -121.434      65.519     361.007
  H     -114.443      63.515     362.421
  H     -114.612      62.054     364.418
  H     -113.163      63.033     364.496
  P     -111.961      66.225     363.854
  C     -110.869      68.198     362.559
  O     -110.833      66.827     362.883
  O     -111.281      64.915     364.490
  O     -112.474      67.152     364.917
  H     -110.958      65.109     365.385
  H     -109.948      68.456     362.036
  H     -110.943      68.806     363.465
  H     -111.722      68.411     361.896
  H     -111.112      64.455     368.662
  H     -111.448      62.761     368.397
  H     -112.469      63.699     369.461

 3  4  5  6  7  8  9  10  11  12  23  26  30  31 0
 6-311+G(2d,p)
 ****
 33  35  36  37  38 0
 6-311+G(2d,p)
 ****
 1  2  13  14  15  16  17  18  19  20  21  22  24  25 0
 3-21G
 ****
 27  28  29  32  34  39  40  41  42  43  44  45  46  47  48  49 0
 3-21G
 ****


