%nproc=1
%NoSave
%Mem=1900MB
#P OB98/GEN NMR

erre ene a

0 1
  C      843.157     346.160    -233.913
  O      842.762     345.018    -233.179
  H      842.595     347.023    -233.545
  H      842.929     346.024    -234.980
  H      844.220     346.350    -233.770
  P      843.444     343.628    -233.593
  C      841.807     343.275    -235.574
  O      843.157     343.493    -235.168
  C      841.695     343.282    -237.093
  O      841.868     344.621    -237.605
  C      842.743     342.429    -237.807
  O      842.337     341.064    -237.844
  C      842.735     343.049    -239.193
  O      841.621     342.522    -239.953
  C      842.515     344.544    -238.902
  N      844.960     348.526    -241.011
  C      843.856     347.860    -241.387
  N      843.282     346.777    -240.805
  C      843.992     346.395    -239.722
  C      845.143     346.978    -239.223
  C      845.631     348.105    -239.908
  N      846.772     348.788    -239.522
  N      845.580     346.313    -238.102
  C      844.676     345.374    -237.900
  N      843.712     345.363    -238.874
  O      843.074     342.450    -232.752
  O      844.998     344.025    -233.559
  H      841.528     343.090    -240.741
  H      845.128     344.913    -233.936
  H      843.355     348.246    -242.266
  H      844.657     344.708    -237.045
  H      841.834     345.006    -239.630
  H      843.643     342.823    -239.765
  H      843.740     342.552    -237.362
  H      840.676     342.958    -237.364
  H      841.159     344.051    -235.157
  H      847.154     349.451    -240.180
  H      847.331     348.377    -238.786
  H      841.491     342.309    -235.173
  P      843.388     339.877    -237.596
  C      843.451     339.175    -240.069
  O      844.176     339.727    -238.983
  O      842.783     338.626    -237.056
  O      844.480     340.517    -236.613
  H      845.003     339.808    -236.204
  H      844.082     339.127    -240.932
  H      842.603     339.791    -240.281
  H      843.121     338.190    -239.814

 6  7  8  9  10  11  12  13  14  15  25  28  32  33  34  35 0
 6-311+G(2d,p)
 ****
 36  39  40 0
 6-311+G(2d,p)
 ****
 1  2  3  4  5  16  17  18  19  20  21  22  23  24 0
 3-21G
 ****
 26  27  29  30  31  37  38  41  42  43  44  45  46  47 0
 3-21G
 ****
 48 0
 3-21G
 ****


