%nproc=1
%NoSave
%Mem=1900MB
#P OB98/GEN NMR

erre ene a

0 1
  C      706.475       9.998     239.887
  O      707.366       9.940     238.791
  H      706.273      11.049     240.118
  H      706.932       9.529     240.761
  H      705.531       9.503     239.649
  P      707.631       8.489     238.157
  C      710.043       9.401     237.845
  O      708.995       8.602     237.316
  C      710.683      10.236     236.739
  O      711.451       9.388     235.848
  C      709.684      10.985     235.860
  O      709.269      12.205     236.457
  C      710.536      11.239     234.628
  O      711.446      12.323     234.873
  C      711.307       9.913     234.492
  N      710.391       8.437     229.732
  C      711.099       9.531     230.206
  N      711.632      10.355     229.276
  N      711.266       9.804     231.475
  C      710.670       8.898     232.293
  C      709.949       7.779     231.943
  C      709.773       7.489     230.537
  O      709.185       6.525     230.061
  N      709.510       7.095     233.054
  C      709.943       7.817     234.069
  N      710.653       8.922     233.659
  O      706.506       8.369     237.021
  O      707.559       7.349     239.117
  H      712.002      12.059     235.632
  H      706.203       7.440     236.977
  H      710.283       8.289     228.741
  H      709.777       7.585     235.110
  H      712.316      10.057     234.094
  H      709.938      11.511     233.747
  H      711.499      10.233     228.283
  H      708.828      10.353     235.591
  H      712.182      11.140     229.587
  H      711.387      10.935     237.206
  H      710.803       8.753     238.293
  H      709.629      10.059     238.619
  P      707.693      12.442     236.659
  C      707.736      14.216     234.764
  O      707.399      13.918     236.118
  O      707.561      12.590     238.253
  O      706.817      11.351     236.128
  H      706.654      12.376     238.535
  H      707.483      15.233     234.549
  H      707.192      13.567     234.110
  H      708.786      14.071     234.618

 6  7  8  9  10  11  12  13  14  15  26  29  33  34 0
 6-311+G(2d,p)
 ****
 36  38  39  40  41 0
 6-311+G(2d,p)
 ****
 1  2  3  4  5  16  17  18  19  20  21  22  23  24  25 0
 3-21G
 ****
 27  28  30  31  32  35  37  42  43  44  45  46  47 0
 3-21G
 ****
 48  49 0
 3-21G
 ****


