%nproc=1
%NoSave
%Mem=1900MB
#P OB98/GEN NMR

erre ene a

0 1
  C     -353.701     -23.272     197.450
  O     -352.518     -23.994     197.168
  P     -352.501     -25.592     197.197
  C     -351.716     -25.687     199.700
  O     -352.646     -26.069     198.712
  C     -352.122     -26.319     201.040
  O     -353.514     -26.073     201.299
  C     -351.899     -27.829     201.037
  O     -350.634     -28.150     201.603
  C     -353.073     -28.339     201.856
  O     -352.797     -28.212     203.264
  C     -354.191     -27.356     201.438
  N     -354.922     -27.625     200.185
  C     -355.450     -28.895     199.953
  O     -355.370     -29.822     200.753
  N     -356.055     -29.071     198.733
  C     -356.225     -28.111     197.776
  O     -356.546     -28.339     196.618
  C     -355.895     -26.740     198.194
  C     -355.248     -26.568     199.345
  O     -350.985     -25.948     196.842
  O     -353.467     -26.259     196.273
  H     -352.537     -27.286     203.421
  H     -350.899     -26.181     195.898
  H     -356.316     -30.026     198.504
  H     -356.140     -25.930     197.520
  H     -354.959     -25.566     199.654
  H     -354.938     -27.251     202.233
  H     -353.250     -29.397     201.675
  H     -351.985     -28.226     200.017
  H     -351.540     -25.851     201.847
  H     -351.680     -24.598     199.788
  H     -350.710     -26.020     199.415
  P     -349.977     -29.577     201.298
  C     -350.854     -30.484     203.532
  O     -350.860     -30.632     202.125
  O     -348.499     -29.664     201.518
  O     -350.368     -29.847     199.768
  H     -349.620     -29.602     199.184
  H     -351.614     -31.138     203.953
  H     -351.067     -29.451     203.808
  H     -349.873     -30.782     203.927
  H     -353.504     -22.223     197.379
  H     -354.034     -23.506     198.440
  H     -354.460     -23.541     196.745

 3  4  5  6  7  8  9  10  11  12  13  23  28  29  30  31  32 0
 6-311+G(2d,p)
 ****
 33  34 0
 6-311+G(2d,p)
 ****
 1  2  14  15  16  17  18  19  20  21  22  24  25  26  27 0
 3-21G
 ****
 35  36  37  38  39  40  41  42  43  44  45 0
 3-21G
 ****


