%nproc=1
%NoSave
%Mem=1900MB
#P OB98/GEN NMR

erre ene a

0 1
  C      430.348      65.971     536.746
  O      430.894      64.744     537.186
  H      430.967      66.787     537.134
  H      429.332      66.094     537.132
  H      430.345      66.022     535.656
  P      430.165      63.382     536.753
  C      428.779      63.710     538.919
  O      429.548      62.816     538.127
  C      428.607      63.149     540.329
  O      427.672      62.049     540.346
  C      429.876      62.577     540.953
  O      430.807      63.569     541.361
  C      429.281      61.831     542.128
  O      428.905      62.757     543.156
  C      428.036      61.188     541.464
  N      428.278      59.820     541.003
  C      427.986      58.792     541.904
  O      427.552      59.044     543.024
  N      428.223      57.490     541.523
  C      428.730      57.246     540.353
  N      428.952      55.941     540.034
  C      429.073      58.303     539.381
  C      428.824      59.554     539.766
  O      430.996      62.413     535.971
  O      428.845      63.861     535.982
  H      428.250      63.366     542.766
  H      428.361      63.053     535.683
  H      429.522      58.043     538.437
  H      429.058      60.382     539.102
  H      427.186      61.182     542.156
  H      429.967      61.108     542.576
  H      430.351      61.852     540.276
  H      428.181      63.945     540.950
  H      428.705      55.238     540.721
  H      427.813      63.853     538.431
  H      429.412      55.656     539.178
  H      429.290      64.676     538.987
  P      432.185      63.665     540.525
  C      433.300      61.730     541.874
  O      433.328      63.092     541.484
  O      432.461      65.238     540.474
  O      432.139      63.041     539.164
  H      432.176      65.615     539.619
  H      434.135      61.524     542.511
  H      433.353      61.109     541.004
  H      432.391      61.529     542.401

 6  7  8  9  10  11  12  13  14  15  16  26  30  31  32  33  35 0
 6-311+G(2d,p)
 ****
 37  38 0
 6-311+G(2d,p)
 ****
 1  2  3  4  5  17  18  19  20  21  22  23  24  25 0
 3-21G
 ****
 27  28  29  34  36  39  40  41  42  43  44  45  46 0
 3-21G
 ****


