%nproc=1
%NoSave
%Mem=1900MB
#P OB98/GEN NMR

erre ene a

0 1
  C     -802.474    -568.619    -130.630
  O     -802.055    -568.468    -131.978
  P     -802.784    -569.272    -133.153
  C     -800.479    -569.494    -134.311
  O     -801.628    -570.170    -133.829
  C     -799.492    -570.500    -134.915
  O     -798.856    -571.236    -133.854
  C     -800.131    -571.531    -135.826
  O     -800.438    -570.983    -137.096
  C     -799.058    -572.612    -135.827
  O     -798.000    -572.274    -136.734
  C     -798.542    -572.563    -134.361
  N     -799.118    -573.602    -133.509
  C     -798.269    -574.677    -133.195
  O     -797.107    -574.702    -133.611
  N     -798.746    -575.666    -132.376
  C     -799.962    -575.610    -131.921
  N     -800.367    -576.580    -131.057
  C     -800.901    -574.524    -132.279
  C     -800.410    -573.568    -133.066
  O     -803.551    -568.419    -134.119
  O     -803.694    -570.370    -132.415
  H     -797.648    -571.424    -136.458
  H     -804.591    -570.036    -132.179
  H     -801.918    -574.526    -131.898
  H     -801.033    -572.714    -133.357
  H     -797.439    -572.638    -134.345
  H     -799.427    -573.618    -136.116
  H     -801.045    -571.935    -135.366
  H     -798.718    -569.938    -135.466
  H     -799.648    -577.200    -130.701
  H     -799.998    -568.971    -133.475
  H     -801.161    -576.454    -130.455
  H     -800.780    -568.736    -135.061
  P     -801.983    -570.882    -137.496
  C     -801.475    -570.521    -140.016
  O     -802.088    -571.348    -139.036
  O     -802.236    -569.298    -137.554
  O     -802.936    -571.558    -136.552
  H     -802.716    -568.997    -136.742
  H     -801.421    -571.097    -140.953
  H     -800.479    -570.236    -139.714
  H     -802.102    -569.642    -140.200
  H     -801.869    -568.004    -129.997
  H     -802.371    -569.643    -130.337
  H     -803.499    -568.324    -130.540

 3  4  5  6  7  8  9  10  11  12  13  23  27  28  29  30  32 0
 6-311+G(2d,p)
 ****
 34  35 0
 6-311+G(2d,p)
 ****
 1  2  14  15  16  17  18  19  20  21  22  24  25  26 0
 3-21G
 ****
 31  33  36  37  38  39  40  41  42  43  44  45  46 0
 3-21G
 ****


