%nproc=1
%NoSave
%Mem=1900MB
#P OB98/GEN NMR

erre ene a

0 1
  C       64.629      91.127     -66.619
  O       64.302      92.479     -66.366
  H       64.281      90.863     -67.621
  H       64.134      90.478     -65.892
  H       65.712      90.985     -66.572
  P       64.710      93.055     -64.925
  C       62.282      92.623     -64.120
  O       63.667      92.422     -63.880
  C       61.532      91.297     -64.045
  O       61.952      90.411     -65.107
  C       61.728      90.536     -62.739
  O       60.862      91.021     -61.727
  C       61.391      89.116     -63.170
  O       59.965      88.900     -63.208
  C       61.989      89.057     -64.583
  N       64.866      85.171     -66.033
  C       63.515      85.390     -66.199
  N       62.816      84.399     -66.797
  N       62.900      86.474     -65.809
  C       63.720      87.362     -65.199
  C       65.077      87.268     -64.989
  C       65.749      86.075     -65.455
  O       66.954      85.850     -65.397
  N       65.558      88.382     -64.352
  C       64.491      89.130     -64.144
  N       63.349      88.545     -64.625
  O       64.265      94.593     -64.998
  O       66.150      92.917     -64.564
  H       59.572      89.479     -63.882
  H       64.861      95.124     -64.436
  H       65.285      84.323     -66.372
  H       64.494      90.093     -63.653
  H       61.395      88.431     -65.257
  H       61.799      88.377     -62.480
  H       63.153      83.446     -66.809
  H       62.776      90.579     -62.418
  H       61.820      84.542     -66.903
  H       60.468      91.513     -64.206
  H       62.153      93.053     -65.119
  H       61.886      93.322     -63.376
  P       61.533      91.668     -60.419
  C       60.236      90.071     -58.827
  O       61.499      90.533     -59.287
  O       60.433      92.717     -59.920
  O       62.859      92.310     -60.652
  H       60.836      93.355     -59.302
  H       60.382      89.321     -58.078
  H       59.688      89.655     -59.647
  H       59.687      90.889     -58.410

 6  7  8  9  10  11  12  13  14  15  26  29  33  34 0
 6-311+G(2d,p)
 ****
 36  38  39  40  41 0
 6-311+G(2d,p)
 ****
 1  2  3  4  5  16  17  18  19  20  21  22  23  24  25 0
 3-21G
 ****
 27  28  30  31  32  35  37  42  43  44  45  46  47 0
 3-21G
 ****
 48  49 0
 3-21G
 ****


