%nproc=1
%NoSave
%Mem=1900MB
#P OB98/GEN NMR

erre ene a

0 1
  C      479.026    -125.619     117.150
  O      479.239    -124.208     117.018
  P      479.090    -123.453     115.610
  C      477.133    -123.102     113.971
  O      477.534    -123.168     115.340
  C      475.663    -122.677     113.833
  O      474.795    -123.609     114.504
  C      475.345    -121.305     114.419
  O      475.764    -120.277     113.537
  C      473.840    -121.410     114.623
  O      473.146    -121.161     113.384
  C      473.676    -122.873     115.043
  N      470.954    -121.815     119.240
  C      470.749    -121.533     117.934
  N      471.526    -121.843     116.876
  C      472.600    -122.547     117.267
  C      472.942    -122.908     118.560
  C      472.061    -122.510     119.581
  N      472.283    -122.789     120.913
  N      474.137    -123.600     118.576
  C      474.497    -123.673     117.307
  N      473.600    -123.052     116.480
  O      479.797    -124.126     114.479
  O      479.695    -121.992     115.866
  H      472.203    -121.055     113.590
  H      480.051    -121.632     115.031
  H      469.838    -120.977     117.713
  H      475.394    -124.164     116.941
  H      472.775    -123.321     114.608
  H      473.461    -120.690     115.356
  H      475.840    -121.190     115.390
  H      475.411    -122.706     112.764
  H      477.264    -124.097     113.524
  H      471.622    -122.436     121.589
  H      473.130    -123.261     121.181
  H      477.780    -122.390     113.454
  P      476.875    -119.220     114.005
  C      479.417    -119.208     114.359
  O      478.297    -119.954     113.917
  O      476.601    -118.519     115.292
  O      476.944    -118.181     112.784
  H      477.201    -117.301     113.121
  H      479.728    -118.522     113.564
  H      480.236    -119.899     114.569
  H      479.184    -118.651     115.265
  H      479.177    -125.909     118.169
  H      479.716    -126.144     116.524
  H      478.025    -125.858     116.856

 3  4  5  6  7  8  9  10  11  12  22  25  29  30  31  32 0
 6-311+G(2d,p)
 ****
 33  36  37 0
 6-311+G(2d,p)
 ****
 1  2  13  14  15  16  17  18  19  20  21  23  24  26 0
 3-21G
 ****
 27  28  34  35  38  39  40  41  42  43  44  45  46  47  48 0
 3-21G
 ****


