%nproc=1
%NoSave
%Mem=1900MB
#P OB98/GEN NMR

erre ene a

0 1
  C     -134.828      60.609     -83.439
  O     -135.638      61.033     -84.518
  H     -133.804      60.476     -83.800
  H     -135.190      59.652     -83.057
  H     -134.822      61.352     -82.638
  P     -137.121      61.559     -84.217
  C     -136.993      63.792     -85.504
  O     -137.545      62.483     -85.459
  C     -137.226      64.430     -86.879
  O     -136.478      63.664     -87.875
  C     -138.703      64.446     -87.322
  O     -138.895      65.618     -88.127
  C     -138.766      63.185     -88.169
  O     -139.927      63.141     -88.954
  C     -137.424      63.297     -88.900
  N     -137.026      62.068     -89.576
  C     -137.434      61.901     -90.896
  O     -138.088      62.735     -91.523
  N     -137.072      60.719     -91.486
  C     -136.367      59.710     -90.896
  O     -136.051      58.680     -91.477
  C     -135.989      59.933     -89.489
  C     -136.330      61.083     -88.903
  O     -137.330      62.174     -82.873
  O     -138.032      60.255     -84.414
  H     -138.215      59.851     -83.545
  H     -140.062      62.240     -89.322
  H     -137.359      60.581     -92.442
  H     -135.448      59.143     -88.987
  H     -136.070      61.280     -87.869
  H     -137.446      64.114     -89.629
  H     -138.783      62.300     -87.528
  H     -139.401      64.457     -86.481
  H     -136.803      65.442     -86.874
  H     -135.918      63.716     -85.305
  H     -137.459      64.405     -84.724
  P     -139.434      67.013     -87.538
  C     -137.507      68.439     -88.483
  O     -138.910      68.219     -88.460
  O     -139.135      67.203     -86.084
  O     -141.016      66.999     -87.788
  H     -141.464      67.444     -87.042
  H     -137.286      69.263     -89.128
  H     -137.014      67.561     -88.844
  H     -137.164      68.659     -87.494

 6  7  8  9  10  11  12  13  14  15  16  27  31  32  33  34  35 0
 6-311+G(2d,p)
 ****
 36  37 0
 6-311+G(2d,p)
 ****
 1  2  3  4  5  17  18  19  20  21  22  23  24  25 0
 3-21G
 ****
 26  28  29  30  38  39  40  41  42  43  44  45 0
 3-21G
 ****


