%nproc=1
%NoSave
%Mem=1900MB
#P OB98/GEN NMR

erre ene a

0 1
  C     -209.004      50.612     -15.655
  O     -209.671      49.684     -14.830
  P     -210.021      49.949     -13.296
  C     -207.677      49.024     -12.582
  O     -208.646      50.064     -12.472
  C     -206.792      48.958     -11.328
  O     -205.985      50.166     -11.269
  C     -207.645      48.926     -10.043
  O     -207.168      48.022      -9.053
  C     -207.733      50.401      -9.658
  O     -208.069      50.609      -8.292
  C     -206.366      50.914     -10.100
  N     -204.732      55.524      -8.687
  C     -204.357      54.280      -8.206
  N     -203.587      54.281      -7.101
  N     -204.735      53.154      -8.752
  C     -205.590      53.310      -9.786
  C     -206.037      54.487     -10.349
  C     -205.591      55.725      -9.761
  O     -205.991      56.848     -10.071
  N     -206.958      54.259     -11.344
  C     -207.100      52.951     -11.356
  N     -206.315      52.333     -10.414
  O     -211.123      49.137     -12.706
  O     -210.513      51.487     -13.330
  H     -208.034      51.567      -8.125
  H     -211.209      51.583     -12.653
  H     -204.473      56.362      -8.172
  H     -207.768      52.401     -12.013
  H     -205.609      50.752      -9.327
  H     -208.533      50.845     -10.250
  H     -203.401      55.127      -6.574
  H     -208.648      48.554     -10.255
  H     -203.505      53.405      -6.596
  H     -206.118      48.101     -11.408
  H     -207.062      49.262     -13.460
  H     -208.164      48.061     -12.767
  P     -207.987      46.970      -8.174
  C     -208.129      48.446      -6.074
  O     -208.850      47.769      -7.093
  O     -206.887      46.238      -7.276
  O     -208.760      45.967      -8.964
  H     -207.109      45.281      -7.209
  H     -208.813      48.716      -5.273
  H     -207.694      49.363      -6.493
  H     -207.335      47.814      -5.675
  H     -208.889      50.199     -16.636
  H     -208.040      50.827     -15.243
  H     -209.577      51.514     -15.713

 3  4  5  6  7  8  9  10  11  12  23  26  30  31 0
 6-311+G(2d,p)
 ****
 33  35  36  37  38 0
 6-311+G(2d,p)
 ****
 1  2  13  14  15  16  17  18  19  20  21  22  24  25 0
 3-21G
 ****
 27  28  29  32  34  39  40  41  42  43  44  45  46  47  48  49 0
 3-21G
 ****


