%nproc=1
%NoSave
%Mem=1900MB
#P OB98/GEN NMR

erre ene a

0 1
  C      601.146    -225.781     464.977
  O      599.808    -225.327     464.743
  P      599.625    -223.823     464.210
  C      598.699    -224.041     461.769
  O      599.827    -223.903     462.622
  C      598.538    -225.500     461.344
  O      598.133    -226.318     462.470
  C      597.476    -225.724     460.282
  O      597.924    -225.294     459.004
  C      597.252    -227.226     460.409
  O      598.281    -227.945     459.710
  C      597.397    -227.440     461.927
  N      596.116    -227.616     462.606
  C      595.710    -228.934     462.799
  O      596.355    -229.904     462.406
  N      594.511    -229.094     463.442
  C      593.692    -228.098     463.875
  O      592.631    -228.308     464.454
  C      594.153    -226.730     463.600
  C      595.327    -226.548     462.989
  O      600.966    -223.138     464.748
  O      598.358    -223.188     464.677
  H      601.730    -223.741     464.736
  H      599.125    -227.709     460.147
  H      594.202    -230.041     463.600
  H      593.511    -225.911     463.907
  H      595.682    -225.547     462.775
  H      598.006    -228.329     462.129
  H      596.291    -227.542     459.992
  H      596.559    -225.187     460.550
  H      599.514    -225.860     460.991
  H      598.826    -223.421     460.877
  H      597.810    -223.684     462.299
  P      597.764    -223.729     458.667
  C      600.292    -223.087     458.507
  O      599.082    -223.010     459.222
  O      596.618    -223.306     459.703
  O      597.434    -223.460     457.235
  H      596.758    -223.671     460.589
  H      600.948    -222.279     458.838
  H      600.133    -222.993     457.430
  H      600.780    -224.048     458.719
  H      601.124    -226.792     465.327
  H      601.610    -225.159     465.713
  H      601.704    -225.731     464.065

 3  4  5  6  7  8  9  10  11  12  13  24  28  29  30  31  32 0
 6-311+G(2d,p)
 ****
 33  34 0
 6-311+G(2d,p)
 ****
 1  2  14  15  16  17  18  19  20  21  22  23  25  26  27 0
 3-21G
 ****
 35  36  37  38  39  40  41  42  43  44  45 0
 3-21G
 ****


