%nproc=1
%NoSave
%Mem=1900MB
#P OB98/GEN NMR

erre ene a

0 1
  C      466.946    -789.695      46.565
  O      467.985    -790.617      46.883
  P      469.147    -790.342      47.942
  C      470.595    -788.990      46.218
  O      469.936    -789.034      47.471
  C      471.667    -787.903      46.143
  O      472.591    -788.038      47.254
  C      472.522    -788.073      44.861
  O      472.052    -787.545      43.631
  C      473.916    -787.610      45.260
  O      474.141    -786.241      44.934
  C      473.940    -787.828      46.776
  N      478.653    -789.803      46.717
  C      478.176    -788.679      46.085
  N      479.050    -788.013      45.296
  N      476.953    -788.242      46.211
  C      476.155    -789.050      46.952
  C      476.502    -790.211      47.609
  C      477.885    -790.657      47.518
  O      478.362    -791.642      48.065
  N      475.419    -790.777      48.245
  C      474.429    -789.965      47.953
  N      474.811    -788.910      47.167
  O      469.975    -791.526      48.316
  O      468.350    -789.859      49.258
  H      475.078    -786.039      45.124
  H      468.875    -790.171      50.033
  H      479.617    -790.080      46.604
  H      473.402    -790.105      48.271
  H      474.306    -786.921      47.283
  H      474.685    -788.190      44.729
  H      479.973    -788.345      45.087
  H      472.613    -789.156      44.673
  H      478.660    -787.311      44.681
  H      471.233    -786.909      46.229
  H      469.819    -788.820      45.463
  H      471.040    -789.969      45.997
  P      471.114    -788.306      42.575
  C      473.084    -789.063      41.124
  O      471.965    -789.476      41.908
  O      470.956    -787.247      41.389
  O      469.778    -788.728      43.103
  H      470.199    -787.497      40.808
  H      473.390    -789.897      40.475
  H      473.905    -788.815      41.772
  H      472.813    -788.196      40.500
  H      466.301    -790.125      45.828
  H      467.375    -788.793      46.181
  H      466.382    -789.475      47.447

 3  4  5  6  7  8  9  10  11  12  23  26  30  31 0
 6-311+G(2d,p)
 ****
 33  35  36  37  38 0
 6-311+G(2d,p)
 ****
 1  2  13  14  15  16  17  18  19  20  21  22  24  25 0
 3-21G
 ****
 27  28  29  32  34  39  40  41  42  43  44  45  46  47  48  49 0
 3-21G
 ****


