%nproc=1
%NoSave
%Mem=1900MB
#P OB98/GEN NMR

erre ene a

0 1
  C       -4.342     -16.197      52.936
  O       -2.992     -15.859      53.191
  H       -4.969     -15.338      53.188
  H       -4.644     -17.049      53.551
  H       -4.473     -16.433      51.877
  P       -1.903     -17.005      52.918
  C       -1.455     -19.248      54.106
  O       -2.425     -18.261      53.774
  C       -2.118     -20.434      54.806
  O       -2.551     -20.008      56.123
  C       -3.343     -20.972      54.064
  O       -3.373     -22.394      54.175
  C       -4.512     -20.377      54.829
  O       -5.699     -21.156      54.701
  C       -3.952     -20.309      56.248
  N       -8.017     -19.347      59.175
  C       -7.543     -20.489      58.635
  N       -6.438     -20.660      57.878
  C       -5.775     -19.498      57.737
  C       -6.137     -18.255      58.225
  C       -7.326     -18.200      58.973
  N       -7.830     -17.036      59.505
  N       -5.224     -17.297      57.831
  C       -4.318     -17.953      57.130
  N       -4.619     -19.284      57.032
  O       -0.482     -16.617      53.155
  O       -2.256     -17.438      51.420
  H       -6.293     -20.937      55.447
  H       -3.218     -17.525      51.290
  H       -8.129     -21.383      58.830
  H       -3.444     -17.512      56.665
  H       -4.060     -21.256      56.790
  H       -4.727     -19.371      54.448
  H       -3.356     -20.682      53.013
  H       -1.367     -21.218      54.957
  H       -0.689     -18.818      54.760
  H       -8.682     -17.088      60.042
  H       -7.320     -16.174      59.381
  H       -0.976     -19.574      53.177
  P       -2.398     -23.253      53.236
  C       -2.292     -24.028      50.777
  O       -3.034     -23.320      51.764
  O       -1.935     -24.556      53.795
  O       -1.159     -22.256      53.022
  H       -0.332     -22.776      53.012
  H       -2.819     -24.000      49.846
  H       -2.168     -25.045      51.086
  H       -1.332     -23.572      50.657

 6  7  8  9  10  11  12  13  14  15  25  28  32  33  34  35 0
 6-311+G(2d,p)
 ****
 36  39  40 0
 6-311+G(2d,p)
 ****
 1  2  3  4  5  16  17  18  19  20  21  22  23  24 0
 3-21G
 ****
 26  27  29  30  31  37  38  41  42  43  44  45  46  47 0
 3-21G
 ****
 48 0
 3-21G
 ****


