%nproc=1
%NoSave
%Mem=1900MB
#P OB98/GEN NMR

erre ene a

0 1
  C      -47.262    -351.660    -244.644
  O      -47.201    -350.259    -244.827
  H      -46.267    -352.080    -244.809
  H      -47.956    -352.114    -245.357
  H      -47.574    -351.892    -243.622
  P      -48.562    -349.412    -244.799
  C      -47.832    -347.982    -242.787
  O      -48.200    -347.986    -244.159
  C      -47.929    -346.571    -242.201
  O      -46.791    -345.797    -242.667
  C      -49.211    -345.829    -242.610
  O      -49.647    -345.045    -241.496
  C      -48.734    -344.931    -243.732
  O      -49.577    -343.810    -243.901
  C      -47.296    -344.610    -243.306
  N      -46.481    -344.216    -244.455
  C      -46.706    -342.932    -244.972
  O      -47.547    -342.196    -244.453
  N      -46.030    -342.546    -246.098
  C      -45.234    -343.379    -246.695
  N      -44.621    -342.943    -247.826
  C      -44.983    -344.753    -246.199
  C      -45.631    -345.099    -245.088
  O      -49.744    -350.088    -244.189
  O      -48.821    -349.063    -246.341
  H      -49.303    -343.314    -244.699
  H      -49.370    -349.757    -246.754
  H      -44.319    -345.410    -246.736
  H      -45.520    -346.089    -244.658
  H      -47.285    -343.793    -242.570
  H      -48.728    -345.496    -244.676
  H      -50.015    -346.501    -242.930
  H      -47.845    -346.638    -241.111
  H      -44.839    -342.004    -248.142
  H      -46.792    -348.334    -242.719
  H      -44.020    -343.510    -248.400
  H      -48.476    -348.667    -242.225
  P      -50.600    -345.685    -240.366
  C      -48.953    -345.435    -238.415
  O      -50.218    -345.046    -238.940
  O      -50.661    -347.176    -240.379
  O      -52.043    -345.056    -240.677
  H      -52.734    -345.691    -240.402
  H      -48.797    -344.958    -237.470
  H      -48.180    -345.143    -239.094
  H      -48.932    -346.497    -238.286

 6  7  8  9  10  11  12  13  14  15  16  26  30  31  32  33  35 0
 6-311+G(2d,p)
 ****
 37  38 0
 6-311+G(2d,p)
 ****
 1  2  3  4  5  17  18  19  20  21  22  23  24  25 0
 3-21G
 ****
 27  28  29  34  36  39  40  41  42  43  44  45  46 0
 3-21G
 ****


