%nproc=1
%NoSave
%Mem=1900MB
#P OB98/GEN NMR

erre ene a

0 1
  C       -5.378     118.902     164.801
  O       -4.255     118.154     165.275
  P       -4.169     116.613     164.826
  C       -4.016     115.483     167.154
  O       -3.346     115.798     165.939
  C       -3.039     115.387     168.334
  O       -1.988     114.425     168.063
  C       -2.361     116.719     168.673
  O       -2.166     116.750     170.088
  C       -1.006     116.595     167.993
  O       -0.062     117.490     168.567
  C       -0.722     115.097     168.209
  N        0.287     114.571     167.292
  C        1.424     113.994     167.860
  O        1.584     114.005     169.086
  N        2.379     113.452     167.035
  C        2.235     113.534     165.747
  N        3.210     112.981     164.978
  C        1.072     114.186     165.103
  C        0.149     114.668     165.926
  O       -3.178     116.650     163.569
  O       -5.493     116.027     164.456
  H       -0.114     117.404     169.541
  H       -3.567     116.164     162.820
  H        1.000     114.238     164.024
  H       -0.735     115.164     165.552
  H       -0.365     114.919     169.238
  H       -1.098     116.815     166.923
  H       -2.935     117.594     168.357
  H       -3.599     115.028     169.207
  H        3.985     112.536     165.458
  H       -4.539     114.532     167.044
  H        3.199     112.985     163.973
  H       -4.788     116.234     167.340
  P       -2.893     117.899     170.932
  C       -0.696     118.759     171.956
  O       -1.949     118.134     172.208
  O       -4.108     117.083     171.600
  O       -3.378     119.111     170.213
  H       -4.684     117.697     172.089
  H       -0.215     118.971     172.911
  H       -0.841     119.696     171.412
  H       -0.057     118.086     171.380
  H       -5.318     119.906     165.167
  H       -6.282     118.448     165.150
  H       -5.374     118.912     163.731

 3  4  5  6  7  8  9  10  11  12  13  21  23  27  28  29  30  32 0
 6-311+G(2d,p)
 ****
 34  35 0
 6-311+G(2d,p)
 ****
 1  2  14  15  16  17  18  19  20  22  24  25  26 0
 3-21G
 ****
 31  33  36  37  38  39  40  41  42  43  44  45  46 0
 3-21G
 ****


