%nproc=1
%NoSave
%Mem=1900MB
#P OB98/GEN NMR

erre ene a

0 1
  C     -990.940     645.190     526.603
  O     -991.520     644.004     526.047
  P     -993.124     643.920     525.872
  C     -993.615     643.041     523.448
  O     -993.461     642.746     524.831
  C     -993.441     641.788     522.607
  O     -992.046     641.421     522.518
  C     -994.152     640.551     523.157
  O     -995.553     640.590     522.910
  C     -993.438     639.432     522.401
  O     -993.992     639.248     521.102
  C     -991.997     639.979     522.313
  N     -991.093     639.331     523.269
  C     -989.781     639.762     523.252
  O     -989.336     640.579     522.458
  N     -988.948     639.172     524.184
  C     -989.300     638.172     525.047
  O     -988.514     637.666     525.840
  C     -990.690     637.704     524.968
  C     -991.508     638.284     524.078
  O     -993.432     645.224     524.998
  O     -993.913     643.915     527.136
  H     -994.881     638.867     521.210
  H     -994.333     645.536     525.177
  H     -987.990     639.481     524.204
  H     -990.995     636.894     525.612
  H     -992.547     637.959     524.004
  H     -991.595     639.842     521.299
  H     -993.510     638.460     522.931
  H     -993.943     640.454     524.229
  H     -993.792     642.011     521.582
  H     -992.871     643.781     523.153
  H     -994.612     643.488     523.292
  P     -996.510     640.333     524.171
  C     -997.204     642.843     524.492
  O     -997.586     641.526     524.136
  O     -995.524     640.713     525.395
  O     -997.053     638.952     524.215
  H     -994.911     641.408     525.148
  H     -996.175     643.047     524.202
  H     -997.316     642.979     525.574
  H     -997.864     643.544     523.963
  H     -989.877     645.080     526.648
  H     -991.325     645.347     527.589
  H     -991.186     646.030     525.987

 3  4  5  6  7  8  9  10  11  12  13  23  28  29  30  31  32 0
 6-311+G(2d,p)
 ****
 33  34 0
 6-311+G(2d,p)
 ****
 1  2  14  15  16  17  18  19  20  21  22  24  25  26 0
 3-21G
 ****
 27  35  36  37  38  39  40  41  42  43  44  45 0
 3-21G
 ****


