%nproc=1
%NoSave
%Mem=1900MB
#P OB98/GEN NMR

erre ene a

0 1
  C       94.509    -158.946    -618.358
  O       95.776    -158.392    -618.069
  H       93.768    -158.479    -617.706
  H       94.515    -160.024    -618.173
  H       94.242    -158.749    -619.398
  P       97.030    -159.031    -618.847
  C       97.100    -157.626    -621.044
  O       96.663    -158.812    -620.398
  C       97.729    -157.967    -622.394
  O       98.994    -158.638    -622.210
  C       96.895    -158.912    -623.256
  O       95.807    -158.272    -623.903
  C       97.954    -159.363    -624.247
  O       98.213    -158.305    -625.189
  C       99.157    -159.579    -623.307
  N       99.244    -160.953    -622.796
  C       99.592    -161.947    -623.719
  O       99.809    -161.659    -624.895
  N       99.656    -163.250    -623.298
  C       99.415    -163.538    -622.058
  N       99.486    -164.849    -621.696
  C       99.055    -162.527    -621.050
  C       98.990    -161.269    -621.481
  O       96.821    -160.607    -618.657
  O       98.376    -158.531    -618.445
  H       97.371    -158.121    -625.638
  H       97.461    -161.104    -619.225
  H       98.849    -162.821    -620.024
  H       98.731    -160.467    -620.793
  H      100.100    -159.337    -623.811
  H       97.662    -160.238    -624.824
  H       96.551    -159.781    -622.686
  H       97.928    -157.024    -622.915
  H       99.676    -165.527    -622.427
  H       97.837    -157.137    -620.398
  H       99.172    -165.193    -620.800
  H       96.257    -156.950    -621.197
  P       94.505    -159.162    -624.211
  C       93.088    -158.855    -622.046
  O       93.962    -159.688    -622.798
  O       95.113    -160.475    -624.885
  O       93.484    -158.496    -625.086
  H       94.509    -160.833    -625.565
  H       92.820    -159.349    -621.136
  H       92.205    -158.656    -622.617
  H       93.581    -157.933    -621.819

 6  7  8  9  10  11  12  13  14  15  16  26  30  31  32  33  35 0
 6-311+G(2d,p)
 ****
 37  38 0
 6-311+G(2d,p)
 ****
 1  2  3  4  5  17  18  19  20  21  22  23  24  25 0
 3-21G
 ****
 27  28  29  34  36  39  40  41  42  43  44  45  46 0
 3-21G
 ****


