%nproc=1
%NoSave
%Mem=1900MB
#P OB98/GEN NMR

erre ene a

0 1
  C      -22.568     -91.359      -2.823
  O      -23.587     -92.269      -2.466
  H      -22.650     -91.098      -3.881
  H      -22.682     -90.450      -2.227
  H      -21.586     -91.792      -2.621
  P      -23.622     -93.663      -3.258
  C      -22.417     -95.051      -1.431
  O      -22.364     -94.524      -2.749
  C      -21.046     -95.589      -1.030
  O      -20.064     -94.545      -1.247
  C      -20.940     -96.046       0.435
  O      -20.542     -97.419       0.497
  C      -19.823     -95.194       1.018
  O      -18.961     -95.919       1.893
  C      -19.082     -94.691      -0.214
  N      -14.894     -92.570       1.766
  C      -15.127     -93.814       1.292
  N      -16.231     -94.285       0.680
  C      -17.153     -93.315       0.549
  C      -17.050     -91.997       0.961
  C      -15.861     -91.635       1.615
  N      -15.646     -90.384       2.147
  N      -18.207     -91.300       0.663
  C      -19.008     -92.193       0.120
  N      -18.421     -93.429       0.049
  O      -23.213     -93.247      -4.750
  O      -24.931     -94.377      -3.224
  H      -18.505     -96.587       1.346
  H      -23.836     -93.649      -5.384
  H      -14.321     -94.528       1.430
  H      -20.029     -92.014      -0.193
  H      -18.327     -95.407      -0.563
  H      -20.267     -94.364       1.581
  H      -21.874     -95.905       0.991
  H      -20.790     -96.416      -1.704
  H      -23.144     -95.869      -1.392
  H      -14.816     -90.246       2.701
  H      -16.404     -89.717       2.135
  H      -22.741     -94.262      -0.745
  P      -21.720     -98.514       0.455
  C      -21.382     -99.249      -2.019
  O      -22.224     -98.615      -1.065
  O      -22.928     -97.767       1.194
  O      -21.372     -99.805       1.113
  H      -23.527     -98.422       1.600
  H      -21.856     -99.236      -2.978
  H      -21.206    -100.262      -1.722
  H      -20.450     -98.727      -2.075

 6  7  8  9  10  11  12  13  14  15  25  28  32  33  34  35 0
 6-311+G(2d,p)
 ****
 36  39  40 0
 6-311+G(2d,p)
 ****
 1  2  3  4  5  16  17  18  19  20  21  22  23  24 0
 3-21G
 ****
 26  27  29  30  31  37  38  41  42  43  44  45  46  47  48 0
 3-21G
 ****


