%nproc=1
%NoSave
%Mem=1900MB
#P OB98/GEN NMR

erre ene a

0 1
  C      -43.778      25.004      40.088
  O      -44.909      24.832      39.263
  H      -42.883      24.755      39.514
  H      -43.838      24.333      40.948
  H      -43.703      26.040      40.429
  P      -46.330      25.292      39.850
  C      -47.344      22.923      40.160
  O      -46.849      24.095      40.788
  C      -48.363      22.225      41.062
  O      -47.666      21.654      42.200
  C      -49.450      23.159      41.598
  O      -50.692      22.449      41.623
  C      -49.006      23.450      43.020
  O      -50.092      23.811      43.873
  C      -48.299      22.143      43.397
  N      -47.336      22.347      44.475
  C      -47.832      22.878      45.669
  O      -49.028      23.159      45.772
  N      -46.960      23.134      46.694
  C      -45.688      22.957      46.515
  N      -44.870      23.257      47.560
  C      -45.112      22.463      45.250
  C      -45.984      22.173      44.286
  O      -47.300      25.210      38.583
  O      -46.349      26.637      40.496
  H      -50.529      24.605      43.496
  H      -48.005      25.883      38.632
  H      -44.043      22.356      45.139
  H      -45.654      21.812      43.320
  H      -49.030      21.387      43.717
  H      -48.291      24.282      43.017
  H      -49.565      24.072      41.007
  H      -48.804      21.390      40.506
  H      -45.302      23.611      48.405
  H      -46.510      22.240      39.973
  H      -43.864      23.201      47.518
  H      -47.804      23.189      39.202
  P      -51.680      22.682      40.382
  C      -52.766      24.956      41.005
  O      -51.852      24.261      40.169
  O      -53.101      22.216      40.949
  O      -51.296      21.915      39.159
  H      -53.364      21.372      40.539
  H      -52.770      25.994      40.744
  H      -52.469      24.846      42.027
  H      -53.748      24.552      40.874

 6  7  8  9  10  11  12  13  14  15  16  26  30  31  32  33  35 0
 6-311+G(2d,p)
 ****
 37  38 0
 6-311+G(2d,p)
 ****
 1  2  3  4  5  17  18  19  20  21  22  23  24  25 0
 3-21G
 ****
 27  28  29  34  36  39  40  41  42  43  44  45  46 0
 3-21G
 ****


