%nproc=1
%NoSave
%Mem=1900MB
#P OB98/GEN NMR

erre ene a

0 1
  C      338.956    -166.826    -890.320
  O      339.983    -166.579    -891.270
  P      339.580    -166.610    -892.820
  C      338.972    -168.576    -894.420
  O      339.763    -168.109    -893.330
  C      339.294    -170.043    -894.710
  O      338.847    -170.886    -893.620
  C      338.623    -170.582    -895.960
  O      339.288    -170.175    -897.140
  C      338.682    -172.086    -895.730
  O      339.952    -172.627    -896.120
  C      338.505    -172.169    -894.190
  N      337.152    -172.596    -893.810
  C      337.029    -173.889    -893.320
  O      337.982    -174.651    -893.230
  N      335.766    -174.286    -892.970
  C      334.633    -173.544    -893.100
  O      333.528    -173.973    -892.830
  C      334.814    -172.176    -893.650
  C      336.045    -171.788    -893.980
  O      340.775    -165.821    -893.530
  O      338.238    -166.002    -893.130
  H      340.628    -172.120    -895.620
  H      340.432    -165.305    -894.290
  H      335.670    -175.218    -892.590
  H      333.925    -171.568    -893.790
  H      336.196    -170.803    -894.400
  H      339.224    -172.881    -893.770
  H      337.915    -172.629    -896.290
  H      337.563    -170.273    -895.990
  H      340.386    -170.148    -894.800
  H      339.193    -167.960    -895.300
  H      337.916    -168.458    -894.170
  P      338.524    -170.403    -898.540
  C      337.500    -172.679    -899.310
  O      338.616    -171.975    -898.820
  O      339.554    -169.719    -899.560
  O      337.151    -169.807    -898.540
  H      340.485    -169.823    -899.260
  H      336.914    -172.066    -900.000
  H      336.861    -172.992    -898.490
  H      337.859    -173.572    -899.830
  H      339.364    -166.775    -889.332
  H      338.544    -167.799    -890.485
  H      338.187    -166.090    -890.427

 3  4  5  6  7  8  9  10  11  12  13  23  28  29  30  31  32 0
 6-311+G(2d,p)
 ****
 33  34 0
 6-311+G(2d,p)
 ****
 1  2  14  15  16  17  18  19  20  21  22  24  25  26 0
 3-21G
 ****
 27  35  36  37  38  39  40  41  42  43  44  45 0
 3-21G
 ****


