%nproc=1
%NoSave
%Mem=1900MB
#P OB98/GEN NMR

erre ene a

0 1
  C       56.702     -25.066      37.438
  O       56.689     -24.569      36.117
  H       57.734     -25.298      37.715
  H       56.108     -25.980      37.501
  H       56.310     -24.317      38.131
  P       55.266     -24.137      35.511
  C       56.134     -22.703      33.521
  O       55.534     -23.922      33.939
  C       57.588     -22.633      33.997
  O       58.304     -23.793      33.509
  C       58.326     -21.387      33.507
  O       59.107     -20.850      34.576
  C       59.219     -21.898      32.392
  O       60.374     -21.083      32.207
  C       59.494     -23.339      32.838
  N       59.830     -24.203      31.709
  C       61.187     -24.454      31.489
  O       62.037     -23.946      32.222
  N       61.553     -25.228      30.418
  C       60.648     -25.662      29.599
  N       61.075     -26.405      28.543
  C       59.208     -25.382      29.764
  C       58.873     -24.659      30.831
  O       55.075     -22.652      36.068
  O       54.133     -25.056      35.828
  H       60.790     -20.943      33.086
  H       54.146     -22.338      35.950
  H       58.493     -25.753      29.046
  H       57.839     -24.403      31.031
  H       60.321     -23.369      33.560
  H       58.657     -21.901      31.449
  H       57.654     -20.612      33.140
  H       57.597     -22.697      35.091
  H       62.071     -26.568      28.457
  H       55.569     -21.867      33.941
  H       60.463     -26.769      27.828
  H       56.104     -22.645      32.428
  P       58.435     -19.649      35.403
  C       59.415     -20.468      37.658
  O       59.327     -19.410      36.717
  O       57.084     -20.293      35.965
  O       58.186     -18.426      34.583
  H       56.326     -20.032      35.412
  H       60.037     -20.168      38.475
  H       59.837     -21.331      37.186
  H       58.437     -20.703      38.023

 6  7  8  9  10  11  12  13  14  15  16  26  30  31  32  33  35 0
 6-311+G(2d,p)
 ****
 37  38 0
 6-311+G(2d,p)
 ****
 1  2  3  4  5  17  18  19  20  21  22  23  24  25 0
 3-21G
 ****
 27  28  29  34  36  39  40  41  42  43  44  45  46 0
 3-21G
 ****


