%nproc=1
%NoSave
%Mem=1900MB
#P OB98/GEN NMR

erre ene a

0 1
  C      -22.033     265.887    -721.891
  O      -22.762     264.680    -722.040
  P      -22.183     263.560    -723.031
  C      -24.249     264.011    -724.519
  O      -23.414     263.034    -723.907
  C      -25.119     263.389    -725.603
  O      -24.283     263.053    -726.748
  C      -25.835     262.093    -725.175
  O      -27.191     262.123    -725.670
  C      -25.104     261.001    -725.936
  O      -25.919     259.853    -726.153
  C      -24.718     261.766    -727.206
  N      -21.336     262.481    -730.888
  C      -22.004     263.415    -730.129
  N      -21.797     264.713    -730.440
  N      -22.827     263.093    -729.160
  C      -22.919     261.756    -728.943
  C      -22.286     260.735    -729.630
  C      -21.435     261.096    -730.744
  O      -20.875     260.326    -731.510
  N      -22.619     259.512    -729.111
  C      -23.453     259.778    -728.117
  N      -23.706     261.130    -728.014
  O      -21.853     262.352    -722.052
  O      -20.957     263.977    -723.810
  H      -26.162     259.513    -725.272
  H      -20.912     262.084    -722.140
  H      -20.730     262.783    -731.637
  H      -23.913     259.034    -727.479
  H      -25.612     261.915    -727.838
  H      -24.216     260.701    -725.364
  H      -21.154     265.022    -731.150
  H      -25.843     261.912    -724.094
  H      -22.277     265.405    -729.876
  H      -25.837     264.143    -725.951
  H      -23.631     264.792    -724.965
  H      -24.888     264.466    -723.746
  P      -28.332     262.412    -724.556
  C      -30.058     260.954    -725.874
  O      -29.728     262.220    -725.316
  O      -28.228     263.997    -724.334
  O      -28.153     261.638    -723.290
  H      -28.563     264.230    -723.443
  H      -29.340     260.180    -725.556
  H      -30.045     261.030    -726.960
  H      -31.053     260.671    -725.537
  H      -22.542     266.529    -721.203
  H      -21.952     266.374    -722.840
  H      -21.054     265.669    -721.518

 3  4  5  6  7  8  9  10  11  12  23  26  30  31  33  0
 6-311+G(2d,p)
 ****
 35  36  37  38 0
 6-311+G(2d,p)
 ****
 1  2  13  14  15  16  17  18  19  20  21  22  24  25  27  28  29 0
 3-21G
 ****
 32  34  39  40  41  42  43  44  45  46  47  48  49 0
 3-21G
 ****


