%nproc=1
%NoSave
%Mem=1900MB
#P OB98/GEN NMR

erre ene a

0 1
  C      512.661    -452.674    -495.674
  O      513.711    -453.569    -495.986
  H      512.859    -451.714    -496.155
  H      512.612    -452.527    -494.588
  H      511.705    -453.066    -496.040
  P      513.524    -455.098    -495.522
  C      512.882    -455.865    -497.954
  O      512.521    -455.749    -496.589
  C      512.071    -456.958    -498.639
  O      512.559    -458.256    -498.205
  C      510.566    -456.898    -498.332
  O      509.843    -457.306    -499.489
  C      510.395    -457.950    -497.243
  O      509.052    -458.430    -497.169
  C      511.438    -458.992    -497.665
  N      511.853    -459.863    -496.559
  C      511.210    -461.101    -496.463
  O      510.340    -461.420    -497.279
  N      511.533    -461.940    -495.426
  C      512.384    -461.537    -494.524
  N      512.647    -462.407    -493.500
  C      513.052    -460.226    -494.558
  C      512.740    -459.446    -495.598
  O      512.625    -454.929    -494.208
  O      514.801    -455.840    -495.314
  H      508.908    -459.060    -497.908
  H      511.898    -454.298    -494.317
  H      513.737    -459.936    -493.773
  H      513.191    -458.466    -495.711
  H      511.051    -459.627    -498.466
  H      510.653    -457.532    -496.262
  H      510.245    -455.901    -498.016
  H      512.244    -456.900    -499.725
  H      512.148    -463.287    -493.504
  H      513.950    -456.094    -498.046
  H      513.241    -462.179    -492.720
  H      512.708    -454.894    -498.432
  P      509.057    -456.206    -500.358
  C      509.852    -457.055    -502.669
  O      509.825    -455.967    -501.739
  O      508.672    -454.968    -499.619
  O      507.746    -457.005    -500.824
  H      506.984    -456.392    -500.752
  H      510.394    -456.763    -503.544
  H      508.851    -457.317    -502.940
  H      510.332    -457.898    -502.218

 6  7  8  9  10  11  12  13  14  15  16  26  30  31  32  33  35 0
 6-311+G(2d,p)
 ****
 37  38 0
 6-311+G(2d,p)
 ****
 1  2  3  4  5  17  18  19  20  21  22  23  24  25 0
 3-21G
 ****
 27  28  29  34  36  39  40  41  42  43  44  45  46 0
 3-21G
 ****


