%nproc=1
%NoSave
%Mem=1900MB
#P OB98/GEN NMR

erre ene a

0 1
  C       95.739     -24.972      21.640
  O       96.643     -25.514      22.576
  H       95.164     -24.180      22.127
  H       95.049     -25.750      21.303
  H       96.261     -24.547      20.779
  P       97.897     -26.348      22.041
  C       99.751     -24.792      22.937
  O       99.108     -25.324      21.786
  C      101.269     -24.739      22.762
  O      101.803     -26.080      22.745
  C      101.685     -24.081      21.444
  O      101.804     -22.670      21.504
  C      103.039     -24.734      21.180
  O      104.104     -24.003      21.809
  C      102.893     -26.122      21.814
  N      104.415     -30.599      19.871
  C      105.058     -29.788      20.788
  N      106.270     -30.213      21.204
  N      104.557     -28.666      21.231
  C      103.386     -28.325      20.649
  C      102.665     -29.036      19.716
  C      103.190     -30.314      19.285
  O      102.652     -31.075      18.489
  N      101.538     -28.355      19.323
  C      101.627     -27.200      19.952
  N      102.686     -27.167      20.828
  O       97.467     -26.752      20.549
  O       98.247     -27.569      22.837
  H      103.950     -24.015      22.774
  H       97.867     -27.608      20.314
  H      104.836     -31.465      19.589
  H      100.931     -26.376      19.847
  H      103.789     -26.396      22.385
  H      103.260     -24.752      20.110
  H      106.739     -31.022      20.832
  H      101.005     -24.367      20.637
  H      106.855     -29.559      21.728
  H      101.714     -24.228      23.624
  H       99.493     -25.450      23.768
  H       99.357     -23.799      23.168
  P      101.865     -21.794      20.169
  C       99.259     -21.617      19.909
  O      100.502     -22.003      19.366
  O      102.942     -22.571      19.276
  O      102.226     -20.358      20.358
  H      103.815     -22.141      19.340
  H       98.479     -21.844      19.212
  H       99.267     -20.565      20.105
  H       99.088     -22.149      20.821

 6  7  8  9  10  11  12  13  14  15  26  29  33  34 0
 6-311+G(2d,p)
 ****
 36  38  39  40  41 0
 6-311+G(2d,p)
 ****
 1  2  3  4  5  16  17  18  19  20  21  22  23  24  25 0
 3-21G
 ****
 27  28  30  31  32  35  37  42  43  44  45  46  47 0
 3-21G
 ****
 48  49 0
 3-21G
 ****


