%nproc=1
%NoSave
%Mem=1900MB
#P OB98/GEN NMR

erre ene a

0 1
  C       -9.036      13.245     -63.866
  O       -9.499      14.458     -63.311
  H       -8.401      13.471     -64.728
  H       -9.880      12.639     -64.202
  H       -8.448      12.691     -63.130
  P      -10.457      14.348     -62.030
  C      -12.572      15.284     -63.204
  O      -11.578      15.488     -62.211
  C      -13.488      16.505     -63.300
  O      -14.008      16.809     -61.976
  C      -12.787      17.767     -63.823
  O      -13.698      18.488     -64.658
  C      -12.537      18.569     -62.558
  O      -12.385      19.959     -62.824
  C      -13.779      18.213     -61.747
  N      -16.277      19.152     -57.483
  C      -16.743      18.854     -58.748
  N      -18.083      18.801     -58.907
  N      -15.963      18.630     -59.771
  C      -14.645      18.691     -59.464
  C      -14.057      18.987     -58.259
  C      -14.932      19.254     -57.137
  O      -14.579      19.547     -55.999
  N      -12.688      18.985     -58.364
  C      -12.451      18.687     -59.629
  N      -13.608      18.497     -60.334
  O       -9.551      14.910     -60.836
  O      -10.990      12.986     -61.739
  H      -11.542      20.082     -63.310
  H       -9.791      14.489     -59.989
  H      -16.921      19.327     -56.732
  H      -11.472      18.600     -60.080
  H      -14.667      18.766     -62.078
  H      -11.628      18.213     -62.059
  H      -18.745      18.930     -58.158
  H      -11.868      17.560     -64.375
  H      -18.448      18.570     -59.825
  H      -14.351      16.247     -63.925
  H      -13.167      14.404     -62.938
  H      -12.086      15.110     -64.168
  P      -13.588      18.265     -66.242
  C      -12.846      20.538     -67.251
  O      -13.920      19.650     -66.982
  O      -14.867      17.356     -66.565
  O      -12.326      17.594     -66.672
  H      -14.581      16.448     -66.772
  H      -13.220      21.411     -67.744
  H      -12.130      20.052     -67.881
  H      -12.378      20.821     -66.331

 6  7  8  9  10  11  12  13  14  15  26  29  33  34 0
 6-311+G(2d,p)
 ****
 36  38  39  40  41 0
 6-311+G(2d,p)
 ****
 1  2  3  4  5  16  17  18  19  20  21  22  23  24  25 0
 3-21G
 ****
 27  28  30  31  32  35  37  42  43  44  45  46  47 0
 3-21G
 ****
 48  49 0
 3-21G
 ****


