%nproc=1
%NoSave
%Mem=1900MB
#P OB98/GEN NMR

erre ene a

0 1
  C      304.105     343.178    -657.169
  O      303.664     342.513    -656.007
  H      304.717     344.034    -656.873
  H      303.248     343.540    -657.743
  H      304.710     342.508    -657.786
  P      302.763     341.198    -656.212
  C      304.446     339.791    -654.812
  O      303.786     339.967    -656.059
  C      304.923     338.344    -654.660
  O      303.782     337.457    -654.740
  C      305.923     337.919    -655.738
  O      306.975     337.166    -655.134
  C      305.109     337.047    -656.676
  O      305.918     336.101    -657.372
  C      304.061     336.448    -655.729
  N      302.850     336.052    -656.440
  C      302.930     334.893    -657.219
  O      303.989     334.266    -657.295
  N      301.828     334.498    -657.938
  C      300.762     335.232    -657.930
  N      299.711     334.799    -658.680
  C      300.647     336.487    -657.160
  C      301.716     336.827    -656.442
  O      302.437     341.226    -657.777
  O      301.553     341.114    -655.341
  H      306.223     335.430    -656.723
  H      301.716     340.594    -658.006
  H      299.741     337.071    -657.197
  H      301.723     337.736    -655.847
  H      304.468     335.569    -655.210
  H      304.616     337.681    -657.426
  H      306.355     338.763    -656.271
  H      305.346     338.223    -653.656
  H      299.829     333.940    -659.201
  H      303.750     340.036    -654.004
  H      298.842     335.306    -658.769
  H      305.306     340.466    -654.762
  P      308.468     337.575    -655.568
  C      308.899     338.942    -653.409
  O      308.827     338.954    -654.826
  O      308.307     337.995    -657.102
  O      309.465     336.481    -655.378
  H      308.583     337.264    -657.688
  H      309.145     339.922    -653.056
  H      309.653     338.250    -653.096
  H      307.953     338.645    -653.006

 6  7  8  9  10  11  12  13  14  15  16  26  30  31  32  33  35 0
 6-311+G(2d,p)
 ****
 37  38 0
 6-311+G(2d,p)
 ****
 1  2  3  4  5  17  18  19  20  21  22  23  24  25 0
 3-21G
 ****
 27  28  29  34  36  39  40  41  42  43  44  45  46 0
 3-21G
 ****


