%nproc=1
%NoSave
%Mem=1900MB
#P OB98/GEN NMR

erre ene a

0 1
  C     -150.622    -407.581     312.100
  O     -151.783    -406.781     312.129
  H     -149.906    -407.189     311.370
  H     -150.159    -407.570     313.091
  H     -150.883    -408.613     311.844
  P     -152.550    -406.583     310.733
  C     -154.908    -405.727     311.382
  O     -153.597    -405.386     310.952
  C     -155.449    -404.655     312.319
  O     -154.761    -404.705     313.588
  C     -155.272    -403.225     311.826
  O     -156.249    -402.872     310.851
  C     -155.468    -402.451     313.122
  O     -156.876    -402.319     313.400
  C     -154.813    -403.374     314.161
  N     -151.460    -402.886     318.024
  C     -152.738    -403.332     317.992
  N     -153.572    -403.423     316.934
  C     -152.960    -403.013     315.807
  C     -151.663    -402.539     315.686
  C     -150.898    -402.471     316.863
  N     -149.601    -402.005     316.892
  N     -151.377    -402.220     314.379
  C     -152.482    -402.497     313.716
  N     -153.468    -402.973     314.537
  O     -153.483    -407.881     310.633
  O     -151.671    -406.450     309.534
  H     -157.210    -401.609     312.817
  H     -153.544    -408.160     309.697
  H     -153.150    -403.657     318.944
  H     -152.608    -402.380     312.641
  H     -155.418    -403.442     315.074
  H     -155.044    -401.442     313.089
  H     -154.256    -403.055     311.453
  H     -156.510    -404.873     312.508
  H     -154.879    -406.687     311.913
  H     -149.048    -402.169     317.716
  H     -149.187    -401.705     316.015
  H     -155.557    -405.826     310.506
  P     -155.802    -401.850     309.697
  C     -157.919    -402.687     308.445
  O     -157.132    -401.570     308.842
  O     -154.919    -402.760     308.719
  O     -155.054    -400.653     310.165
  H     -154.289    -402.206     308.226
  H     -158.766    -402.346     307.887
  H     -158.253    -403.215     309.314
  H     -157.330    -403.340     307.836

 6  7  8  9  10  11  12  13  14  15  25  28  32  33  34  35 0
 6-311+G(2d,p)
 ****
 36  39  40 0
 6-311+G(2d,p)
 ****
 1  2  3  4  5  16  17  18  19  20  21  22  23  24 0
 3-21G
 ****
 26  27  29  30  31  37  38  41  42  43  44  45  46  47  48 0
 3-21G
 ****


