%nproc=1
%NoSave
%Mem=1900MB
#P OB98/GEN NMR

erre ene a

0 1
  C     -100.942     114.678     505.651
  O      -99.576     115.007     505.486
  P      -98.458     113.857     505.448
  C      -96.533     115.536     505.806
  O      -97.240     114.419     506.336
  C      -95.638     116.166     506.877
  O      -96.433     116.718     507.943
  C      -94.675     115.187     507.535
  O      -93.579     114.914     506.685
  C      -94.321     115.941     508.808
  O      -93.285     116.911     508.568
  C      -95.651     116.640     509.157
  N      -96.377     115.962     510.225
  C      -96.018     116.319     511.530
  O      -95.111     117.135     511.727
  N      -96.657     115.704     512.579
  C      -97.558     114.800     512.343
  N      -98.145     114.217     513.426
  C      -97.940     114.373     510.981
  C      -97.319     114.988     509.981
  O      -98.090     113.373     504.085
  O      -99.084     112.713     506.383
  H      -93.630     117.519     507.886
  H      -99.820     112.237     505.924
  H      -98.688     113.609     510.835
  H      -97.537     114.737     508.949
  H      -95.472     117.680     509.471
  H      -93.955     115.270     509.598
  H      -95.203     114.263     507.795
  H      -95.079     116.990     506.410
  H      -97.831     114.517     514.343
  H      -97.264     116.278     505.468
  H      -98.827     113.478     513.354
  H      -95.939     115.216     504.945
  P      -92.949     113.440     506.645
  C      -90.674     114.589     506.972
  O      -91.507     113.508     507.343
  O      -92.981     112.767     505.313
  O      -93.825     112.629     507.713
  H      -94.057     111.756     507.336
  H      -89.898     114.713     507.731
  H      -91.247     115.519     506.892
  H      -90.200     114.367     506.007
  H     -101.527     115.574     505.651
  H     -101.076     114.165     506.580
  H     -101.256     114.046     504.847

 3  4  5  6  7  8  9  10  11  12  13  23  27  28  29  30  32 0
 6-311+G(2d,p)
 ****
 34  35 0
 6-311+G(2d,p)
 ****
 1  2  14  15  16  17  18  19  20  21  22  24  25  26 0
 3-21G
 ****
 31  33  36  37  38  39  40  41  42  43  44  45  46 0
 3-21G
 ****


