%nproc=1
%NoSave
%Mem=1900MB
#P OB98/GEN NMR

erre ene a

0 1
  C      765.371     123.528     -54.208
  O      764.815     123.565     -52.911
  P      763.754     122.411     -52.544
  C      762.796     121.587     -50.259
  O      763.870     122.176     -50.960
  C      762.761     122.091     -48.818
  O      763.940     121.639     -48.107
  C      762.756     123.625     -48.691
  O      761.445     124.122     -48.858
  C      763.315     123.821     -47.284
  O      762.283     123.629     -46.295
  C      764.372     122.703     -47.201
  N      768.267     125.606     -45.803
  C      766.991     125.540     -45.291
  N      766.711     126.330     -44.227
  N      766.050     124.763     -45.782
  C      766.464     124.033     -46.844
  C      767.702     124.032     -47.458
  C      768.730     124.853     -46.872
  O      769.913     124.885     -47.226
  N      767.734     123.193     -48.534
  C      766.523     122.667     -48.564
  N      765.715     123.129     -47.560
  O      764.408     121.095     -53.181
  O      762.359     122.650     -53.027
  H      762.706     123.505     -45.413
  H      764.007     120.891     -54.048
  H      768.959     126.206     -45.367
  H      766.188     121.926     -49.284
  H      764.424     122.271     -46.188
  H      763.709     124.821     -47.132
  H      767.376     126.968     -43.804
  H      763.442     124.065     -49.425
  H      765.780     126.293     -43.842
  H      761.883     121.669     -48.315
  H      762.916     120.492     -50.256
  H      761.845     121.830     -50.769
  P      761.295     125.607     -49.476
  C      760.215     126.612     -51.621
  O      760.338     125.500     -50.765
  O      762.746     125.899     -50.092
  O      760.894     126.639     -48.483
  H      762.961     126.845     -49.965
  H      760.022     126.262     -52.631
  H      761.122     127.221     -51.617
  H      759.373     127.224     -51.292
  H      766.056     124.342     -54.326
  H      764.589     123.612     -54.934
  H      765.890     122.603     -54.347

 3  4  5  6  7  8  9  10  11  12  23  26  30  31 0
 6-311+G(2d,p)
 ****
 33  35  36  37  38 0
 6-311+G(2d,p)
 ****
 1  2  13  14  15  16  17  18  19  20  21  22  24  25 0
 3-21G
 ****
 27  28  29  32  34  39  40  41  42  43  44  45  46  47  48  49 0
 3-21G
 ****


