%nproc=1
%NoSave
%Mem=1900MB
#P OB98/GEN NMR

erre ene a

0 1
  C      141.645    -221.695    -227.221
  O      140.948    -222.483    -228.165
  H      141.292    -221.954    -226.220
  H      141.447    -220.630    -227.402
  H      142.723    -221.887    -227.281
  P      141.431    -222.387    -229.692
  C      141.362    -220.457    -231.474
  O      140.800    -221.035    -230.308
  C      141.382    -218.935    -231.336
  O      142.197    -218.512    -230.226
  C      141.993    -218.216    -232.532
  O      141.168    -218.259    -233.676
  C      142.172    -216.816    -231.952
  O      140.931    -216.097    -231.954
  C      142.618    -217.143    -230.502
  N      144.044    -216.970    -230.294
  C      144.490    -215.639    -230.252
  O      143.688    -214.708    -230.375
  N      145.842    -215.400    -230.106
  C      146.660    -216.396    -229.986
  N      147.987    -216.105    -229.852
  C      146.228    -217.810    -230.000
  C      144.922    -218.019    -230.164
  O      140.572    -223.536    -230.401
  O      142.906    -222.494    -229.901
  H      141.101    -215.260    -231.474
  H      139.616    -223.460    -230.243
  H      146.957    -218.609    -229.884
  H      144.529    -219.028    -230.182
  H      142.082    -216.507    -229.783
  H      142.888    -216.229    -232.518
  H      142.992    -218.625    -232.743
  H      140.349    -218.599    -231.153
  H      148.240    -215.117    -229.867
  H      140.812    -220.759    -232.369
  H      148.717    -216.785    -229.784
  H      142.385    -220.840    -231.571
  P      141.789    -217.982    -235.138
  C      142.995    -215.978    -236.199
  O      142.064    -216.404    -235.215
  O      140.998    -218.532    -236.270
  O      143.274    -218.587    -235.022
  H      143.829    -218.173    -234.333
  H      143.097    -214.914    -236.157
  H      142.645    -216.265    -237.169
  H      143.945    -216.435    -236.013

 6  7  8  9  10  11  12  13  14  15  16  26  30  31  32  33  35 0
 6-311+G(2d,p)
 ****
 37  38 0
 6-311+G(2d,p)
 ****
 1  2  3  4  5  17  18  19  20  21  22  23  24  25 0
 3-21G
 ****
 27  28  29  34  36  39  40  41  42  43  44  45  46 0
 3-21G
 ****


