%nproc=1
%NoSave
%Mem=1900MB
#P OB98/GEN NMR

erre ene a

0 1
  C      156.040      41.874     392.965
  O      155.224      43.049     392.855
  P      155.744      44.385     392.129
  C      154.665      44.011     389.815
  O      155.884      44.091     390.557
  C      154.758      44.764     388.486
  O      155.917      44.333     387.735
  C      153.567      44.564     387.557
  O      152.475      45.369     387.971
  C      154.167      44.938     386.207
  O      154.192      46.364     386.046
  C      155.594      44.385     386.332
  N      157.437      41.851     382.290
  C      157.467      43.160     382.625
  N      156.947      43.762     383.718
  C      156.370      42.853     384.526
  C      156.265      41.486     384.319
  C      156.832      40.983     383.134
  N      156.790      39.651     382.789
  N      155.583      40.882     385.354
  C      155.303      41.867     386.186
  N      155.756      43.074     385.732
  O      156.964      44.987     392.748
  O      154.508      45.398     392.209
  H      153.286      46.692     386.191
  H      154.835      46.318     392.209
  H      157.973      43.811     381.922
  H      154.774      41.757     387.123
  H      156.328      45.054     385.868
  H      153.603      44.522     385.362
  H      153.273      43.506     387.546
  H      154.897      45.828     388.710
  H      153.863      44.443     390.427
  H      157.192      39.372     381.906
  H      156.297      39.002     383.385
  H      154.439      42.955     389.632
  P      150.996      45.055     387.435
  C      150.449      43.117     389.024
  O      150.722      43.499     387.689
  O      150.694      45.543     386.059
  O      150.045      45.756     388.521
  H      149.217      46.033     388.091
  H      151.385      43.039     389.581
  H      149.958      42.139     389.018
  H      149.792      43.842     389.514
  H      155.498      41.110     393.482
  H      156.931      42.108     393.509
  H      156.300      41.527     391.987

 3  4  5  6  7  8  9  10  11  12  22  25  29  30  31  32 0
 6-311+G(2d,p)
 ****
 33  36  37 0
 6-311+G(2d,p)
 ****
 1  2  13  14  15  16  17  18  19  20  21  23  24  26 0
 3-21G
 ****
 27  28  34  35  38  39  40  41  42  43  44  45  46  47  48 0
 3-21G
 ****


