%nproc=1
%NoSave
%Mem=1900MB
#P OB98/GEN NMR

erre ene a

0 1
  C      172.564     297.870    -207.171
  O      172.808     296.731    -206.339
  P      172.209     296.700    -204.851
  C      170.351     294.962    -205.319
  O      170.663     296.291    -204.914
  C      169.434     294.298    -204.281
  O      168.141     294.957    -204.223
  C      169.117     292.850    -204.615
  O      170.178     291.925    -204.500
  C      167.874     292.589    -203.780
  O      168.208     292.261    -202.427
  C      167.166     293.962    -203.845
  N      166.025     293.961    -204.763
  C      164.974     294.814    -204.441
  O      164.956     295.506    -203.427
  N      163.919     294.817    -205.313
  C      163.798     294.042    -206.432
  O      162.821     294.071    -207.163
  C      164.927     293.143    -206.708
  C      165.971     293.141    -205.877
  O      172.525     297.885    -204.002
  O      172.887     295.379    -204.232
  H      167.395     292.358    -201.900
  H      173.143     295.580    -203.310
  H      163.151     295.435    -205.097
  H      164.863     292.510    -207.583
  H      166.816     292.483    -206.062
  H      166.791     294.249    -202.856
  H      167.291     291.753    -204.177
  H      168.804     292.806    -205.668
  H      169.897     294.393    -203.299
  H      171.270     294.386    -205.432
  H      169.876     294.991    -206.304
  P      170.676     290.994    -205.710
  C      172.981     292.103    -206.129
  O      171.686     291.848    -206.617
  O      169.643     290.176    -206.418
  O      171.686     290.003    -204.952
  H      171.648     289.130    -205.395
  H      173.524     292.708    -206.864
  H      173.527     291.169    -205.975
  H      172.934     292.663    -205.190
  H      173.032     297.724    -208.122
  H      172.967     298.745    -206.705
  H      171.510     297.993    -207.308

 3  4  5  6  7  8  9  10  11  12  13  23  28  29  30  31  32 0
 6-311+G(2d,p)
 ****
 33  34 0
 6-311+G(2d,p)
 ****
 1  2  14  15  16  17  18  19  20  21  22  24  25  26  27 0
 3-21G
 ****
 35  36  37  38  39  40  41  42  43  44  45 0
 3-21G
 ****


