%nproc=1
%NoSave
%Mem=1900MB
#P OB98/GEN NMR

erre ene a

0 1
  C     -338.212    -521.258    -110.600
  O     -336.993    -521.128    -111.305
  H     -338.781    -520.331    -110.707
  H     -338.019    -521.436    -109.538
  H     -338.797    -522.083    -111.016
  P     -335.988    -522.379    -111.243
  C     -333.920    -520.817    -111.286
  O     -334.647    -521.849    -111.947
  C     -332.756    -520.345    -112.150
  O     -331.755    -521.378    -112.253
  C     -333.142    -519.988    -113.583
  O     -333.642    -518.660    -113.640
  C     -331.795    -520.101    -114.282
  O     -331.029    -518.900    -114.056
  C     -331.135    -521.285    -113.560
  N     -329.391    -524.253    -117.367
  C     -329.180    -522.953    -117.084
  N     -329.720    -522.212    -116.088
  C     -330.552    -522.959    -115.335
  C     -330.864    -524.299    -115.511
  C     -330.235    -524.960    -116.581
  N     -330.457    -526.289    -116.875
  N     -331.752    -524.725    -114.546
  C     -331.925    -523.676    -113.768
  N     -331.250    -522.572    -114.222
  O     -336.535    -523.671    -111.750
  O     -335.589    -522.374    -109.689
  H     -331.473    -518.185    -114.550
  H     -335.459    -521.462    -109.376
  H     -328.493    -522.431    -117.737
  H     -332.515    -523.667    -112.857
  H     -330.060    -521.117    -113.396
  H     -331.892    -520.215    -115.364
  H     -333.831    -520.713    -114.012
  H     -332.283    -519.492    -111.648
  H     -333.543    -521.182    -110.318
  H     -330.121    -526.626    -117.762
  H     -331.182    -526.774    -116.362
  H     -334.618    -519.995    -111.095
  P     -335.156    -518.364    -114.080
  C     -335.113    -516.191    -115.455
  O     -335.262    -516.765    -114.161
  O     -336.190    -519.044    -113.246
  O     -335.213    -518.802    -115.614
  H     -336.144    -518.915    -115.895
  H     -335.202    -515.127    -115.386
  H     -335.875    -516.571    -116.104
  H     -334.151    -516.444    -115.849

 6  7  8  9  10  11  12  13  14  15  25  28  32  33  34  35 0
 6-311+G(2d,p)
 ****
 36  39  40 0
 6-311+G(2d,p)
 ****
 1  2  3  4  5  16  17  18  19  20  21  22  23  24 0
 3-21G
 ****
 26  27  29  30  31  37  38  41  42  43  44  45  46  47 0
 3-21G
 ****
 48 0
 3-21G
 ****


