%nproc=1
%NoSave
%Mem=1900MB
#P OB98/GEN NMR

erre ene a

0 1
  C       55.208    -195.584     -47.845
  O       56.451    -194.929     -47.665
  H       55.396    -196.603     -48.191
  H       54.612    -195.060     -48.597
  H       54.665    -195.626     -46.897
  P       56.392    -193.417     -47.132
  C       58.914    -193.694     -46.617
  O       57.908    -192.903     -47.235
  C       60.296    -193.087     -46.856
  O       60.689    -193.248     -48.231
  C       60.379    -191.590     -46.576
  O       60.530    -191.344     -45.185
  C       61.637    -191.226     -47.350
  O       62.802    -191.587     -46.584
  C       61.531    -192.123     -48.598
  N       62.251    -188.574     -52.241
  C       62.934    -188.849     -51.108
  N       62.660    -189.779     -50.165
  C       61.552    -190.467     -50.482
  C       60.752    -190.298     -51.603
  C       61.146    -189.308     -52.516
  N       60.450    -189.037     -53.677
  N       59.697    -191.186     -51.590
  C       59.886    -191.913     -50.506
  N       60.975    -191.493     -49.782
  O       55.713    -193.219     -45.820
  O       55.696    -192.682     -48.376
  H       62.633    -192.463     -46.185
  H       56.025    -193.049     -49.216
  H       63.817    -188.243     -50.935
  H       59.278    -192.761     -50.210
  H       62.508    -192.526     -48.891
  H       61.706    -190.155     -47.552
  H       59.527    -191.053     -47.003
  H       61.018    -193.642     -46.242
  H       58.886    -194.718     -47.005
  H       60.702    -188.202     -54.186
  H       59.563    -189.495     -53.817
  H       58.697    -193.724     -45.544
  P       59.693    -190.181     -44.466
  C       60.824    -190.640     -42.201
  O       60.579    -189.679     -43.224
  O       58.286    -190.536     -44.120
  O       59.762    -188.948     -45.480
  H       58.910    -188.470     -45.495
  H       61.420    -190.197     -41.431
  H       61.343    -191.478     -42.616
  H       59.893    -190.967     -41.788

 6  7  8  9  10  11  12  13  14  15  25  28  32  33  34  35 0
 6-311+G(2d,p)
 ****
 36  39  40 0
 6-311+G(2d,p)
 ****
 1  2  3  4  5  16  17  18  19  20  21  22  23  24 0
 3-21G
 ****
 26  27  29  30  31  37  38  41  42  43  44  45  46  47 0
 3-21G
 ****
 48 0
 3-21G
 ****


