%nproc=1
%NoSave
%Mem=1900MB
#P OB98/GEN NMR

erre ene a

0 1
  C      272.583    -131.338    -369.531
  O      271.709    -130.835    -370.521
  H      272.363    -132.397    -369.375
  H      272.429    -130.802    -368.590
  H      273.625    -131.236    -369.852
  P      271.985    -129.337    -371.034
  C      273.714    -130.212    -372.805
  O      273.443    -129.369    -371.701
  C      275.018    -129.801    -373.491
  O      274.759    -128.646    -374.328
  C      276.137    -129.430    -372.515
  O      277.382    -129.853    -373.071
  C      276.088    -127.911    -372.489
  O      277.326    -127.341    -372.078
  C      275.673    -127.601    -373.936
  N      275.069    -126.279    -374.073
  C      275.943    -125.187    -374.086
  O      277.157    -125.363    -373.974
  N      275.424    -123.921    -374.184
  C      274.138    -123.753    -374.199
  N      273.685    -122.470    -374.272
  C      273.176    -124.872    -374.142
  C      273.706    -126.095    -374.091
  O      272.216    -128.558    -369.654
  O      270.904    -128.769    -371.890
  H      278.030    -127.646    -372.690
  H      272.788    -129.035    -369.031
  H      272.113    -124.679    -374.146
  H      273.075    -126.973    -374.053
  H      276.542    -127.651    -374.605
  H      275.314    -127.571    -371.791
  H      276.000    -129.875    -371.526
  H      275.333    -130.612    -374.159
  H      274.379    -121.732    -374.286
  H      272.895    -130.168    -373.529
  H      272.708    -122.219    -374.234
  H      273.786    -131.240    -372.438
  P      277.832    -131.382    -372.926
  C      278.446    -131.726    -375.414
  O      277.624    -132.132    -374.326
  O      277.302    -132.105    -371.732
  O      279.434    -131.270    -372.836
  H      279.739    -131.908    -372.161
  H      278.203    -132.305    -376.280
  H      279.474    -131.878    -375.160
  H      278.279    -130.689    -375.620

 6  7  8  9  10  11  12  13  14  15  16  26  30  31  32  33  35 0
 6-311+G(2d,p)
 ****
 37  38 0
 6-311+G(2d,p)
 ****
 1  2  3  4  5  17  18  19  20  21  22  23  24  25 0
 3-21G
 ****
 27  28  29  34  36  39  40  41  42  43  44  45  46 0
 3-21G
 ****


