%nproc=1
%NoSave
%Mem=1900MB
#P OB98/GEN NMR

erre ene a

0 1
  C       17.288    -216.096     153.117
  O       16.657    -216.783     152.048
  P       16.469    -216.003     150.658
  C       18.452    -217.221     149.480
  O       17.902    -215.995     149.934
  C       17.938    -217.557     148.077
  O       18.321    -216.480     147.181
  C       18.497    -218.858     147.476
  O       17.467    -219.402     146.642
  C       19.650    -218.376     146.619
  O       20.014    -219.312     145.606
  C       19.085    -217.059     146.097
  N       20.272    -213.141     143.120
  C       19.104    -213.886     143.177
  N       18.093    -213.491     142.374
  N       18.942    -214.924     143.963
  C       20.038    -215.187     144.720
  C       21.256    -214.559     144.718
  C       21.409    -213.388     143.881
  O       22.389    -212.652     143.854
  N       22.143    -215.174     145.560
  C       21.443    -216.130     146.135
  N       20.140    -216.152     145.686
  O       16.267    -214.485     151.124
  O       15.349    -216.491     149.787
  H       20.291    -220.140     146.052
  H       15.324    -214.263     151.207
  H       20.327    -212.338     142.508
  H       21.805    -216.828     146.867
  H       18.414    -217.197     145.240
  H       20.530    -218.206     147.249
  H       18.141    -212.681     141.771
  H       18.799    -219.586     148.232
  H       17.218    -213.994     142.428
  H       16.845    -217.585     148.105
  H       18.142    -218.024     150.163
  H       19.547    -217.161     149.489
  P       17.444    -220.995     146.427
  C       15.625    -221.426     148.223
  O       16.953    -221.663     147.799
  O       19.002    -221.369     146.368
  O       16.744    -221.446     145.186
  H       19.136    -222.130     145.771
  H       15.323    -222.227     148.909
  H       14.930    -221.401     147.383
  H       15.578    -220.471     148.757
  H       17.342    -216.738     153.971
  H       16.722    -215.222     153.363
  H       18.276    -215.810     152.823

 3  4  5  6  7  8  9  10  11  12  23  26  30  31 0
 6-311+G(2d,p)
 ****
 33  35  36  37  38 0
 6-311+G(2d,p)
 ****
 1  2  13  14  15  16  17  18  19  20  21  22  24  25 0
 3-21G
 ****
 27  28  29  32  34  39  40  41  42  43  44  45  46  47  48  49 0
 3-21G
 ****


