%nproc=1
%NoSave
%Mem=1900MB
#P OB98/GEN NMR

erre ene a

0 1
  C     -185.477     254.563    -383.601
  O     -186.827     254.332    -383.963
  P     -187.587     253.112    -383.247
  C     -188.330     254.618    -381.259
  O     -187.602     253.468    -381.683
  C     -189.559     254.200    -380.454
  O     -190.455     253.440    -381.281
  C     -189.247     253.318    -379.260
  O     -188.740     254.082    -378.191
  C     -190.612     252.693    -378.988
  O     -191.400     253.537    -378.132
  C     -191.234     252.602    -380.401
  N     -191.305     251.233    -380.889
  C     -192.569     250.626    -380.813
  O     -193.522     251.241    -380.333
  N     -192.697     249.327    -381.241
  C     -191.666     248.696    -381.705
  N     -191.855     247.413    -382.118
  C     -190.320     249.290    -381.781
  C     -190.211     250.550    -381.357
  O     -186.530     251.919    -383.348
  O     -188.906     252.759    -383.850
  H     -191.405     254.418    -378.565
  H     -186.978     251.053    -383.337
  H     -189.485     248.719    -382.173
  H     -189.255     251.067    -381.377
  H     -192.251     253.013    -380.394
  H     -190.523     251.729    -378.479
  H     -188.533     252.530    -379.546
  H     -190.085     255.113    -380.132
  H     -192.788     247.028    -382.047
  H     -188.660     255.183    -382.140
  H     -191.120     246.844    -382.510
  H     -187.672     255.255    -380.659
  P     -188.122     253.296    -376.937
  C     -185.787     253.804    -377.861
  O     -186.681     252.799    -377.431
  O     -188.968     251.933    -376.945
  O     -188.168     253.981    -375.614
  H     -188.749     251.404    -376.156
  H     -184.803     253.352    -378.021
  H     -185.694     254.584    -377.103
  H     -186.126     254.235    -378.807
  H     -185.098     255.399    -384.151
  H     -184.894     253.695    -383.826
  H     -185.419     254.769    -382.553

 3  4  5  6  7  8  9  10  11  12  13  21  23  27  28  29  30  32 0
 6-311+G(2d,p)
 ****
 34  35 0
 6-311+G(2d,p)
 ****
 1  2  14  15  16  17  18  19  20  22  24  25  26 0
 3-21G
 ****
 31  33  36  37  38  39  40  41  42  43  44  45  46 0
 3-21G
 ****


