%nproc=1
%NoSave
%Mem=1900MB
#P OB98/GEN NMR

erre ene a

0 1
  C      -65.445     271.517    -266.308
  O      -65.189     272.860    -265.973
  H      -64.950     271.294    -267.258
  H      -66.516     271.349    -266.435
  H      -65.046     270.845    -265.543
  P      -65.837     273.474    -264.635
  C      -68.261     273.971    -263.937
  O      -67.357     273.835    -265.030
  C      -69.431     274.885    -264.300
  O      -68.985     276.270    -264.304
  C      -70.040     274.592    -265.685
  O      -71.460     274.542    -265.584
  C      -69.630     275.793    -266.515
  O      -70.495     276.023    -267.625
  C      -69.601     276.891    -265.451
  N      -68.879     278.077    -265.895
  C      -69.611     279.270    -265.925
  O      -70.797     279.278    -265.581
  N      -69.004     280.408    -266.400
  C      -67.791     280.349    -266.848
  N      -67.255     281.505    -267.329
  C      -66.990     279.100    -266.859
  C      -67.591     278.016    -266.372
  O      -65.062     274.593    -264.024
  O      -66.013     272.223    -263.655
  H      -71.425     275.954    -267.314
  H      -66.067     272.550    -262.729
  H      -65.983     279.109    -267.246
  H      -67.084     277.056    -266.343
  H      -70.624     277.190    -265.166
  H      -68.617     275.633    -266.909
  H      -69.681     273.659    -266.120
  H      -70.189     274.810    -263.512
  H      -67.846     282.332    -267.303
  H      -67.709     274.380    -263.079
  H      -66.332     281.576    -267.720
  H      -68.647     272.980    -263.682
  P      -72.165     273.183    -266.083
  C      -73.020     272.214    -268.339
  O      -72.433     273.316    -267.664
  O      -73.628     273.258    -265.433
  O      -71.437     271.947    -265.658
  H      -73.709     272.588    -264.728
  H      -73.135     272.451    -269.376
  H      -73.979     272.004    -267.913
  H      -72.389     271.356    -268.237

 6  7  8  9  10  11  12  13  14  15  16  26  30  31  32  33  35 0
 6-311+G(2d,p)
 ****
 37  38 0
 6-311+G(2d,p)
 ****
 1  2  3  4  5  17  18  19  20  21  22  23  24  25 0
 3-21G
 ****
 27  28  29  34  36  39  40  41  42  43  44  45  46 0
 3-21G
 ****


