%nproc=1
%NoSave
%Mem=1900MB
#P OB98/GEN NMR

erre ene a

0 1
  C     -138.314      10.407      99.295
  O     -138.985      10.886     100.447
  H     -139.042       9.914      98.646
  H     -137.544       9.681      99.571
  H     -137.862      11.238      98.746
  P     -138.120      11.583     101.598
  C     -137.220       9.353     102.557
  O     -136.906      10.586     101.918
  C     -136.721       9.353     104.000
  O     -137.119       8.140     104.668
  C     -135.203       9.423     104.132
  O     -134.739      10.731     103.869
  C     -135.027       8.945     105.565
  O     -135.327       9.993     106.500
  C     -136.093       7.823     105.642
  N     -135.553       6.487     105.411
  C     -135.092       5.806     106.546
  O     -135.143       6.341     107.653
  N     -134.573       4.545     106.382
  C     -134.553       3.996     105.208
  N     -134.030       2.744     105.118
  C     -135.063       4.663     103.997
  C     -135.532       5.899     104.167
  O     -138.878      12.042     102.807
  O     -137.400      12.804     100.856
  H     -135.244       9.596     107.390
  H     -137.922      13.622     100.957
  H     -135.036       4.164     103.037
  H     -135.923       6.464     103.325
  H     -136.583       7.825     106.627
  H     -134.007       8.614     105.770
  H     -134.730       8.694     103.466
  H     -137.198      10.191     104.524
  H     -133.711       2.316     105.981
  H     -136.728       8.560     101.987
  H     -134.113       2.160     104.297
  H     -138.302       9.172     102.533
  P     -133.201      11.020     103.520
  C     -132.564      12.197     105.718
  O     -132.428      11.024     104.929
  O     -132.957      12.220     102.668
  O     -132.701       9.653     102.856
  H     -133.018       9.585     101.920
  H     -132.009      12.083     106.626
  H     -133.597      12.354     105.949
  H     -132.188      13.038     105.174

 6  7  8  9  10  11  12  13  14  15  16  26  30  31  32  33  35 0
 6-311+G(2d,p)
 ****
 37  38 0
 6-311+G(2d,p)
 ****
 1  2  3  4  5  17  18  19  20  21  22  23  24  25 0
 3-21G
 ****
 27  28  29  34  36  39  40  41  42  43  44  45  46 0
 3-21G
 ****


