%nproc=1
%NoSave
%Mem=1900MB
#P OB98/GEN NMR

erre ene a

0 1
  C     -880.957    -522.162    -148.156
  O     -880.906    -520.940    -148.855
  P     -880.370    -520.884    -150.362
  C     -882.805    -520.393    -151.070
  O     -881.659    -521.200    -151.283
  C     -882.973    -519.371    -152.208
  O     -883.099    -520.059    -153.474
  C     -884.212    -518.511    -152.078
  O     -884.020    -517.486    -151.111
  C     -884.366    -517.998    -153.514
  O     -883.504    -516.877    -153.757
  C     -883.913    -519.225    -154.336
  N     -885.037    -519.975    -154.888
  C     -885.743    -519.329    -155.909
  O     -885.434    -518.199    -156.263
  N     -886.823    -519.979    -156.470
  C     -887.166    -521.153    -156.026
  N     -888.251    -521.734    -156.614
  C     -886.463    -521.847    -154.925
  C     -885.414    -521.201    -154.416
  O     -879.172    -521.726    -150.640
  O     -880.139    -519.321    -150.617
  H     -882.594    -517.203    -153.613
  H     -879.321    -518.999    -150.148
  H     -886.791    -522.826    -154.588
  H     -884.841    -521.644    -153.612
  H     -883.258    -518.916    -155.153
  H     -885.382    -517.682    -153.731
  H     -885.075    -519.126    -151.809
  H     -882.077    -518.751    -152.232
  H     -888.727    -521.208    -157.334
  H     -882.675    -519.857    -150.112
  H     -888.621    -522.631    -156.315
  H     -883.696    -521.021    -150.978
  P     -885.047    -517.337    -149.899
  C     -883.323    -517.956    -148.092
  O     -884.551    -518.294    -148.719
  O     -886.481    -517.453    -150.250
  O     -884.737    -515.869    -149.314
  H     -885.575    -515.405    -149.140
  H     -883.256    -518.473    -147.135
  H     -883.238    -516.878    -147.939
  H     -882.487    -518.299    -148.729
  H     -881.341    -521.994    -147.171
  H     -879.973    -522.576    -148.089
  H     -881.596    -522.844    -148.677

 3  4  5  6  7  8  9  10  11  12  13  23  27  28  29  30  32 0
 6-311+G(2d,p)
 ****
 34  35 0
 6-311+G(2d,p)
 ****
 1  2  14  15  16  17  18  19  20  21  22  24  25  26 0
 3-21G
 ****
 31  33  36  37  38  39  40  41  42  43  44  45  46 0
 3-21G
 ****


