%nproc=1
%NoSave
%Mem=1900MB
#P OB98/GEN NMR

erre ene a

0 1
  C     -208.276     129.456     394.268
  O     -208.887     130.313     393.327
  H     -208.247     129.961     395.239
  H     -207.249     129.233     393.963
  H     -208.843     128.526     394.374
  P     -209.181     129.712     391.866
  C     -208.466     131.810     390.500
  O     -209.530     130.965     390.925
  C     -208.926     132.735     389.370
  O     -209.626     133.869     389.951
  C     -207.780     133.273     388.516
  O     -208.215     133.321     387.151
  C     -207.586     134.687     389.033
  O     -206.992     135.554     388.061
  C     -209.008     135.070     389.453
  N     -209.004     136.130     390.453
  C     -209.059     137.441     389.971
  O     -209.092     137.661     388.763
  N     -209.005     138.485     390.876
  C     -208.832     138.229     392.136
  N     -208.758     139.304     392.976
  C     -208.705     136.863     392.682
  C     -208.801     135.878     391.794
  O     -210.593     128.982     392.042
  O     -208.130     128.804     391.330
  H     -206.116     135.182     387.813
  H     -210.660     128.203     391.455
  H     -208.530     136.704     393.734
  H     -208.716     134.834     392.099
  H     -209.589     135.402     388.581
  H     -206.920     134.674     389.908
  H     -206.868     132.675     388.583
  H     -209.654     132.184     388.752
  H     -208.838     140.220     392.561
  H     -207.641     131.188     390.142
  H     -208.580     139.226     393.966
  H     -208.112     132.399     391.353
  P     -207.193     132.741     386.055
  C     -207.660     134.628     384.320
  O     -207.696     133.235     384.602
  O     -207.505     131.173     386.048
  O     -205.760     133.031     386.356
  H     -206.770     130.693     386.466
  H     -208.021     134.800     383.327
  H     -206.654     134.982     384.400
  H     -208.279     135.150     385.020

 6  7  8  9  10  11  12  13  14  15  16  26  30  31  32  33  35 0
 6-311+G(2d,p)
 ****
 37  38 0
 6-311+G(2d,p)
 ****
 1  2  3  4  5  17  18  19  20  21  22  23  24  25 0
 3-21G
 ****
 27  28  29  34  36  39  40  41  42  43  44  45  46 0
 3-21G
 ****


