%nproc=1
%NoSave
%Mem=1900MB
#P OB98/GEN NMR

erre ene a

0 1
  C     -283.062     -11.534      22.166
  O     -282.423     -12.180      21.079
  P     -283.011     -11.925      19.608
  C     -283.809     -14.410      19.253
  O     -284.146     -13.037      19.394
  C     -285.078     -15.250      19.106
  O     -285.961     -15.007      20.221
  C     -285.900     -14.946      17.861
  O     -285.329     -15.519      16.696
  C     -287.258     -15.519      18.256
  O     -287.267     -16.945      18.064
  C     -287.320     -15.180      19.757
  N     -288.132     -14.004      20.050
  C     -289.512     -14.195      20.059
  O     -290.043     -15.283      19.837
  N     -290.266     -13.082      20.315
  C     -289.794     -11.813      20.494
  O     -290.520     -10.845      20.674
  C     -288.333     -11.668      20.442
  C     -287.582     -12.750      20.225
  O     -281.781     -12.420      18.711
  O     -283.434     -10.513      19.380
  H     -281.242     -13.087      19.171
  H     -287.966     -17.296      18.652
  H     -291.267     -13.199      20.348
  H     -287.920     -10.674      20.569
  H     -286.504     -12.659      20.176
  H     -287.725     -16.031      20.321
  H     -288.079     -15.103      17.663
  H     -285.986     -13.859      17.730
  H     -284.791     -16.312      19.125
  H     -283.256     -14.731      20.139
  H     -283.163     -14.529      18.377
  P     -285.827     -14.926      15.286
  C     -287.403     -16.989      14.994
  O     -287.257     -15.586      14.999
  O     -284.835     -15.669      14.270
  O     -285.782     -13.434      15.213
  H     -284.703     -16.609      14.490
  H     -288.460     -17.232      15.144
  H     -286.820     -17.453      15.795
  H     -287.082     -17.389      14.028
  H     -282.566     -11.795      23.077
  H     -284.084     -11.846      22.215
  H     -283.018     -10.474      22.027

 3  4  5  6  7  8  9  10  11  12  13  24  28  29  30  31  32 0
 6-311+G(2d,p)
 ****
 33  34 0
 6-311+G(2d,p)
 ****
 1  2  14  15  16  17  18  19  20  21  22  23  25  26  27 0
 3-21G
 ****
 35  36  37  38  39  40  41  42  43  44  45 0
 3-21G
 ****


