%nproc=1
%NoSave
%Mem=1900MB
#P OB98/GEN NMR

erre ene a

0 1
  C     -371.828    -585.255       7.666
  O     -370.576    -585.852       7.322
  P     -370.612    -587.369       6.790
  C     -368.504    -587.211       5.271
  O     -369.907    -587.395       5.347
  C     -368.171    -585.827       4.719
  O     -368.640    -584.791       5.587
  C     -366.678    -585.572       4.562
  O     -366.155    -586.162       3.382
  C     -366.652    -584.050       4.442
  O     -366.949    -583.654       3.095
  C     -367.796    -583.628       5.391
  N     -365.777    -579.762       7.983
  C     -366.114    -579.851       6.643
  N     -365.915    -578.745       5.899
  N     -366.611    -580.932       6.088
  C     -366.784    -581.955       6.963
  C     -366.488    -581.983       8.311
  C     -365.913    -580.794       8.903
  O     -365.564    -580.678      10.075
  N     -366.817    -583.195       8.860
  C     -367.340    -583.881       7.865
  N     -367.333    -583.175       6.683
  O     -372.165    -587.587       6.450
  O     -370.117    -588.368       7.780
  H     -366.920    -582.674       3.070
  H     -372.400    -588.531       6.531
  H     -365.396    -578.917       8.349
  H     -367.745    -584.887       7.944
  H     -368.414    -582.845       4.954
  H     -365.674    -583.616       4.700
  H     -365.607    -577.861       6.271
  H     -366.122    -585.883       5.452
  H     -366.195    -578.785       4.921
  H     -368.668    -585.721       3.738
  H     -368.067    -587.981       4.630
  H     -368.075    -587.350       6.274
  P     -365.236    -587.470       3.567
  C     -366.667    -589.084       2.118
  O     -366.236    -588.719       3.411
  O     -364.883    -587.447       5.127
  O     -364.020    -587.503       2.708
  H     -364.023    -587.883       5.278
  H     -365.848    -589.066       1.398
  H     -367.463    -588.403       1.789
  H     -367.069    -590.101       2.149
  H     -371.665    -584.253       8.003
  H     -372.291    -585.822       8.446
  H     -372.466    -585.243       6.807

 3  4  5  6  7  8  9  10  11  12  23  26  30  31  33  0
 6-311+G(2d,p)
 ****
 35  36  37  38 0
 6-311+G(2d,p)
 ****
 1  2  13  14  15  16  17  18  19  20  21  22  24  25  27  28  29 0
 3-21G
 ****
 32  34  39  40  41  42  43  44  45  46  47  48  49 0
 3-21G
 ****


