%nproc=1
%NoSave
%Mem=1900MB
#P OB98/GEN NMR

erre ene a

0 1
  C      401.110    -306.010     321.303
  O      400.625    -307.364     321.293
  P      399.635    -307.850     322.465
  C      397.710    -308.517     320.821
  O      398.121    -307.746     321.946
  C      396.303    -308.109     320.385
  O      396.309    -306.772     319.825
  C      395.695    -308.988     319.297
  O      395.232    -310.222     319.816
  C      394.580    -308.090     318.760
  O      393.406    -308.184     319.596
  C      395.222    -306.688     318.884
  N      395.664    -306.162     317.596
  C      394.680    -305.967     316.635
  O      393.489    -306.264     316.810
  N      395.098    -305.434     315.441
  C      396.392    -305.162     315.098
  O      396.710    -304.711     314.001
  C      397.399    -305.472     316.129
  C      396.998    -305.957     317.302
  O      399.717    -306.617     323.498
  O      400.013    -309.136     323.139
  H      392.712    -307.640     319.180
  H      399.539    -306.944     324.404
  H      394.387    -305.259     314.741
  H      398.442    -305.290     315.879
  H      397.732    -306.186     318.064
  H      394.499    -305.988     319.319
  H      394.278    -308.357     317.752
  H      396.437    -309.152     318.497
  H      395.658    -308.099     321.271
  H      397.709    -309.575     321.096
  H      398.427    -308.371     320.012
  P      396.107    -311.525     319.468
  C      396.524    -312.080     321.991
  O      397.063    -311.743     320.731
  O      397.065    -310.957     318.309
  O      395.274    -312.709     319.063
  H      397.283    -310.012     318.451
  H      395.618    -312.699     321.896
  H      396.270    -311.151     322.526
  H      397.269    -312.624     322.567
  H      401.751    -305.855     320.461
  H      401.658    -305.834     322.205
  H      400.282    -305.334     321.251

 3  4  5  6  7  8  9  10  11  12  13  23  28  29  30  31  32 0
 6-311+G(2d,p)
 ****
 33  34 0
 6-311+G(2d,p)
 ****
 1  2  14  15  16  17  18  19  20  21  22  24  25  26 0
 3-21G
 ****
 27  35  36  37  38  39  40  41  42  43  44  45 0
 3-21G
 ****


