%nproc=1
%NoSave
%Mem=1900MB
#P OB98/GEN NMR

erre ene a

0 1
  C     -384.312      59.090     410.457
  O     -384.214      60.501     410.432
  H     -383.305      58.671     410.580
  H     -384.735      58.727     409.519
  H     -384.931      58.762     411.301
  P     -385.590      61.317     410.260
  C     -384.928      63.160     411.972
  O     -385.245      62.856     410.614
  C     -384.298      64.554     412.060
  O     -383.003      64.524     411.380
  C     -385.132      65.669     411.418
  O     -385.015      66.852     412.201
  C     -384.434      65.891     410.077
  O     -384.697      67.192     409.552
  C     -382.982      65.649     410.480
  N     -381.016      67.703     406.324
  C     -381.798      68.265     407.322
  N     -382.100      69.584     407.199
  N     -382.233      67.596     408.357
  C     -381.830      66.304     408.369
  C     -381.072      65.632     407.435
  C     -380.604      66.381     406.293
  O     -379.936      65.934     405.362
  N     -380.914      64.308     407.789
  C     -381.570      64.192     408.937
  N     -382.139      65.372     409.329
  O     -386.469      60.838     411.509
  O     -386.297      61.119     408.962
  H     -384.284      67.249     408.668
  H     -387.424      60.865     411.290
  H     -380.708      68.272     405.546
  H     -381.667      63.276     409.505
  H     -382.542      66.506     411.000
  H     -384.777      65.139     409.354
  H     -381.764      70.175     406.444
  H     -386.190      65.409     411.304
  H     -382.656      70.017     407.926
  H     -384.094      64.770     413.118
  H     -384.226      62.408     412.351
  H     -385.849      63.138     412.565
  P     -386.314      67.779     412.344
  C     -385.679      68.763     414.674
  O     -385.958      69.028     413.314
  O     -387.292      66.894     413.247
  O     -386.950      68.148     411.047
  H     -388.028      66.556     412.714
  H     -385.464      69.681     415.180
  H     -384.833      68.111     414.744
  H     -386.528      68.296     415.128

 6  7  8  9  10  11  12  13  14  15  26  29  33  34 0
 6-311+G(2d,p)
 ****
 36  38  39  40  41 0
 6-311+G(2d,p)
 ****
 1  2  3  4  5  16  17  18  19  20  21  22  23  24  25 0
 3-21G
 ****
 27  28  30  31  32  35  37  42  43  44  45  46  47 0
 3-21G
 ****
 48  49 0
 3-21G
 ****


