%nproc=1
%NoSave
%Mem=1900MB
#P OB98/GEN NMR

erre ene a

0 1
  C      353.595     -40.574     276.848
  O      353.410     -40.533     275.448
  H      353.141     -41.481     277.256
  H      354.666     -40.588     277.064
  H      353.149     -39.694     277.317
  P      351.891     -40.528     274.927
  C      352.017     -43.057     274.407
  O      351.748     -41.759     273.902
  C      352.388     -43.997     273.260
  O      351.315     -43.965     272.283
  C      353.697     -43.630     272.544
  O      354.555     -44.775     272.437
  C      353.259     -43.219     271.153
  O      354.200     -43.577     270.145
  C      351.935     -43.957     270.990
  N      351.272     -43.137     265.998
  C      351.965     -44.083     266.659
  N      352.023     -44.307     267.987
  C      351.236     -43.444     268.654
  C      350.454     -42.435     268.114
  C      350.505     -42.281     266.718
  N      349.838     -41.278     266.044
  N      349.787     -41.743     269.109
  C      350.192     -42.295     270.232
  N      351.083     -43.314     270.010
  O      351.834     -39.234     273.977
  O      350.866     -40.457     276.008
  H      354.006     -43.027     269.361
  H      351.182     -38.607     274.336
  H      352.556     -44.749     266.044
  H      349.918     -41.971     271.233
  H      352.084     -45.002     270.683
  H      353.116     -42.130     271.131
  H      354.238     -42.817     273.046
  H      352.438     -45.022     273.647
  H      351.125     -43.445     274.913
  H      350.027     -41.168     265.062
  H      349.357     -40.571     266.585
  H      352.832     -43.000     275.133
  P      356.014     -44.638     273.096
  C      357.527     -46.196     271.674
  O      356.794     -46.030     272.882
  O      355.697     -44.610     274.672
  O      356.754     -43.413     272.670
  H      356.072     -43.796     275.068
  H      357.991     -47.160     271.668
  H      358.279     -45.438     271.606
  H      356.862     -46.114     270.839

 6  7  8  9  10  11  12  13  14  15  25  28  32  33  34  35 0
 6-311+G(2d,p)
 ****
 36  39  40 0
 6-311+G(2d,p)
 ****
 1  2  3  4  5  16  17  18  19  20  21  22  23  24 0
 3-21G
 ****
 26  27  29  30  31  37  38  41  42  43  44  45  46  47  48 0
 3-21G
 ****


