%nproc=1
%NoSave
%Mem=1900MB
#P OB98/GEN NMR

erre ene a

0 1
  C     -467.154     667.927     186.535
  O     -468.205     668.594     185.862
  H     -467.590     667.206     187.233
  H     -466.554     668.641     187.106
  H     -466.523     667.388     185.828
  P     -467.835     669.643     184.702
  C     -468.162     668.147     182.637
  O     -468.692     669.219     183.408
  C     -469.073     667.848     181.447
  O     -470.349     667.372     181.947
  C     -469.341     669.061     180.554
  O     -469.385     668.619     179.194
  C     -470.725     669.516     180.987
  O     -471.415     670.216     179.952
  C     -471.386     668.203     181.377
  N     -475.835     670.481     182.124
  C     -475.046     670.415     180.992
  N     -475.485     671.081     179.902
  N     -473.911     669.764     180.937
  C     -473.595     669.133     182.096
  C     -474.287     669.127     183.279
  C     -475.535     669.864     183.334
  O     -476.268     669.967     184.316
  N     -473.625     668.401     184.241
  C     -472.533     667.970     183.631
  N     -472.461     668.402     182.336
  O     -466.375     669.825     184.443
  O     -468.533     671.003     185.172
  H     -472.271     670.510     180.321
  H     -467.881     671.601     185.583
  H     -476.692     671.010     182.108
  H     -471.768     667.359     184.088
  H     -471.816     667.672     180.518
  H     -470.634     670.191     181.850
  H     -476.353     671.587     179.863
  H     -468.595     669.849     180.664
  H     -474.931     671.028     179.048
  H     -468.635     667.023     180.868
  H     -468.082     667.267     183.274
  H     -467.161     668.415     182.278
  P     -468.857     669.604     178.044
  C     -466.798     668.133     177.543
  O     -467.972     668.743     177.018
  O     -468.224     670.871     178.517
  O     -470.183     669.907     177.190
  H     -470.112     670.794     176.803
  H     -466.299     667.592     176.766
  H     -467.067     667.460     178.330
  H     -466.145     668.888     177.927

 6  7  8  9  10  11  12  13  14  15  26  29  33  34 0
 6-311+G(2d,p)
 ****
 36  38  39  40  41 0
 6-311+G(2d,p)
 ****
 1  2  3  4  5  16  17  18  19  20  21  22  23  24  25 0
 3-21G
 ****
 27  28  30  31  32  35  37  42  43  44  45  46  47 0
 3-21G
 ****
 48  49 0
 3-21G
 ****


