%nproc=1
%NoSave
%Mem=1900MB
#P OB98/GEN NMR

erre ene a

0 1
  C       -9.886      79.646      51.068
  O       -9.933      80.789      50.237
  P       -9.055      82.086      50.562
  C      -10.479      83.182      52.389
  O      -10.046      83.253      51.037
  C      -11.760      83.990      52.606
  O      -12.229      83.790      53.965
  C      -11.594      85.500      52.383
  O      -12.794      85.968      51.756
  C      -11.480      86.044      53.794
  O      -11.817      87.422      53.871
  C      -12.424      85.096      54.542
  N      -12.181      85.087      55.975
  C      -13.302      85.018      56.807
  O      -14.434      85.101      56.327
  N      -13.107      84.873      58.158
  C      -11.910      84.983      58.647
  N      -11.753      84.765      59.981
  C      -10.731      85.306      57.818
  C      -10.927      85.300      56.502
  O       -8.097      82.485      49.488
  O       -8.274      81.706      51.909
  H       -7.317      81.850      51.776
  H      -11.715      87.722      54.800
  H       -9.779      85.512      58.283
  H      -10.120      85.500      55.808
  H      -13.472      85.376      54.363
  H      -10.452      85.924      54.153
  H      -10.736      85.743      51.749
  H      -12.530      83.592      51.935
  H      -12.576      84.505      60.510
  H       -9.688      83.592      53.021
  H      -10.851      84.516      60.386
  H      -10.630      82.135      52.677
  P      -12.660      86.940      50.484
  C      -12.400      89.029      52.004
  O      -13.098      88.414      50.940
  O      -13.917      86.480      49.594
  O      -11.403      86.823      49.683
  H      -13.737      86.688      48.658
  H      -12.873      89.990      52.220
  H      -11.358      89.208      51.721
  H      -12.440      88.407      52.902
  H      -10.542      78.895      50.679
  H      -10.195      79.911      52.057
  H       -8.886      79.266      51.096

 3  4  5  6  7  8  9  10  11  12  13  24  27  28  29  30  32 0
 6-311+G(2d,p)
 ****
 34  35 0
 6-311+G(2d,p)
 ****
 1  2  14  15  16  17  18  19  20  21  22  23  25  26 0
 3-21G
 ****
 31  33  36  37  38  39  40  41  42  43  44  45  46 0
 3-21G
 ****


