%nproc=1
%NoSave
%Mem=1900MB
#P OB98/GEN NMR

erre ene a

0 1
  C      726.254     338.966     395.954
  O      724.958     339.466     396.324
  P      723.883     338.423     396.885
  C      722.662     339.849     398.696
  O      723.577     338.798     398.423
  C      721.426     339.304     399.411
  O      720.530     338.631     398.493
  C      721.731     338.287     400.487
  O      722.117     338.897     401.716
  C      720.375     337.596     400.649
  O      719.518     338.409     401.471
  C      719.862     337.561     399.218
  N      718.772     332.563     399.005
  C      718.352     333.545     399.830
  N      718.705     334.842     399.843
  C      719.570     335.107     398.846
  C      720.082     334.212     397.918
  C      719.638     332.884     398.017
  N      720.069     331.888     397.167
  N      720.943     334.845     397.054
  C      720.948     336.102     397.437
  N      720.135     336.312     398.528
  O      724.718     337.061     397.010
  O      722.679     338.259     396.019
  H      719.862     338.363     402.381
  H      724.138     336.298     396.818
  H      717.649     333.242     400.601
  H      721.523     336.899     396.967
  H      718.786     337.733     399.155
  H      720.464     336.624     401.137
  H      722.491     337.562     400.152
  H      720.879     340.158     399.860
  H      722.372     340.352     397.771
  H      719.687     330.960     397.285
  H      720.698     332.120     396.424
  H      723.158     340.604     399.313
  P      723.462     338.387     402.416
  C      725.009     340.455     402.179
  O      724.666     339.180     401.706
  O      723.597     336.882     401.869
  O      723.443     338.449     403.901
  H      724.053     336.327     402.529
  H      726.004     340.717     401.797
  H      725.038     340.474     403.273
  H      724.301     341.202     401.810
  H      726.860     339.774     395.600
  H      726.147     338.234     395.181
  H      726.720     338.518     396.807

 3  4  5  6  7  8  9  10  11  12  22  25  29  30  31  32 0
 6-311+G(2d,p)
 ****
 33  36  37 0
 6-311+G(2d,p)
 ****
 1  2  13  14  15  16  17  18  19  20  21  23  24  26 0
 3-21G
 ****
 27  28  34  35  38  39  40  41  42  43  44  45  46  47  48 0
 3-21G
 ****


