%nproc=1
%NoSave
%Mem=1900MB
#P OB98/GEN NMR

erre ene a

0 1
  C     -777.920    -450.234    -601.572
  O     -778.186    -451.594    -601.292
  H     -777.020    -449.936    -601.031
  H     -778.755    -449.608    -601.245
  H     -777.752    -450.102    -602.644
  P     -779.496    -452.225    -601.968
  C     -778.427    -454.524    -602.433
  O     -778.926    -453.320    -602.999
  C     -777.060    -454.868    -603.034
  O     -776.151    -453.768    -602.764
  C     -776.439    -456.136    -602.444
  O     -775.768    -456.858    -603.475
  C     -775.426    -455.609    -601.438
  O     -774.369    -456.536    -601.201
  C     -774.988    -454.303    -602.106
  N     -771.198    -453.403    -598.818
  C     -771.370    -454.356    -599.752
  N     -772.405    -454.516    -600.599
  C     -773.304    -453.521    -600.440
  C     -773.265    -452.487    -599.532
  C     -772.151    -452.445    -598.680
  N     -771.972    -451.492    -597.706
  N     -774.392    -451.695    -599.651
  C     -775.098    -452.240    -600.626
  N     -774.487    -453.359    -601.125
  O     -780.461    -451.246    -602.544
  O     -780.070    -453.134    -600.783
  H     -773.642    -456.067    -600.746
  H     -779.358    -453.639    -600.347
  H     -770.578    -455.098    -599.829
  H     -776.049    -451.875    -600.994
  H     -774.200    -454.457    -602.849
  H     -775.922    -455.412    -600.482
  H     -777.183    -456.787    -601.964
  H     -777.164    -454.946    -604.121
  H     -779.129    -455.346    -602.618
  H     -771.132    -451.525    -597.143
  H     -772.660    -450.761    -597.598
  H     -778.343    -454.379    -601.354
  P     -776.646    -457.564    -604.615
  C     -775.553    -456.527    -606.711
  O     -776.717    -456.594    -605.888
  O     -777.950    -458.139    -604.169
  O     -775.661    -458.726    -605.128
  H     -776.193    -459.524    -605.338
  H     -775.727    -455.850    -607.521
  H     -775.335    -457.500    -607.100
  H     -774.724    -456.181    -606.129

 6  7  8  9  10  11  12  13  14  15  25  28  32  33  34  35 0
 6-311+G(2d,p)
 ****
 36  39  40 0
 6-311+G(2d,p)
 ****
 1  2  3  4  5  16  17  18  19  20  21  22  23  24 0
 3-21G
 ****
 26  27  29  30  31  37  38  41  42  43  44  45  46  47 0
 3-21G
 ****
 48 0
 3-21G
 ****


