%nproc=1
%NoSave
%Mem=1900MB
#P OB98/GEN NMR

erre ene a

0 1
  C      -54.943      25.324      64.064
  O      -53.829      26.187      64.157
  H      -55.370      25.413      63.062
  H      -55.705      25.604      64.794
  H      -54.639      24.285      64.222
  P      -53.019      26.246      65.540
  C      -53.415      28.807      65.573
  O      -53.568      27.576      66.261
  C      -54.031      29.944      66.382
  O      -55.358      29.604      66.840
  C      -53.273      30.315      67.651
  O      -52.066      31.021      67.412
  C      -54.317      31.172      68.340
  O      -54.376      32.464      67.711
  C      -55.600      30.353      68.065
  N      -55.938      29.447      69.162
  C      -56.836      29.931      70.121
  O      -57.300      31.067      70.029
  N      -57.168      29.125      71.184
  C      -56.630      27.949      71.295
  N      -56.987      27.197      72.373
  C      -55.662      27.409      70.320
  C      -55.367      28.199      69.290
  O      -51.531      26.142      65.434
  O      -53.677      25.098      66.441
  H      -55.023      32.993      68.212
  H      -53.203      25.085      67.307
  H      -55.220      26.435      70.474
  H      -54.659      27.873      68.536
  H      -56.454      31.015      67.875
  H      -54.109      31.337      69.400
  H      -53.087      29.427      68.268
  H      -54.136      30.807      65.709
  H      -57.651      27.594      73.025
  H      -53.897      28.715      64.595
  H      -56.561      26.303      72.579
  H      -52.352      29.025      65.426
  P      -51.088      31.237      68.670
  C      -50.972      33.824      68.334
  O      -51.327      32.738      69.172
  O      -49.638      31.275      67.997
  O      -51.196      30.201      69.745
  H      -49.197      30.408      68.076
  H      -51.200      34.745      68.828
  H      -51.524      33.764      67.419
  H      -49.924      33.783      68.122

 6  7  8  9  10  11  12  13  14  15  16  26  30  31  32  33  35 0
 6-311+G(2d,p)
 ****
 37  38 0
 6-311+G(2d,p)
 ****
 1  2  3  4  5  17  18  19  20  21  22  23  24  25 0
 3-21G
 ****
 27  28  29  34  36  39  40  41  42  43  44  45  46 0
 3-21G
 ****


