%nproc=1
%NoSave
%Mem=1900MB
#P OB98/GEN NMR

erre ene a

0 1
  C     -506.885    -498.624     285.264
  O     -506.155    -499.041     286.405
  P     -506.679    -500.287     287.271
  C     -507.898    -499.322     289.357
  O     -506.697    -499.808     288.804
  C     -507.640    -498.581     290.681
  O     -507.208    -499.560     291.659
  C     -506.534    -497.535     290.622
  O     -506.677    -496.655     291.741
  C     -505.289    -498.382     290.795
  O     -504.170    -497.612     291.222
  C     -505.768    -499.473     291.786
  N     -505.149    -500.777     291.488
  C     -503.861    -500.987     291.969
  O     -503.267    -500.171     292.677
  N     -503.238    -502.131     291.537
  C     -503.764    -503.030     290.652
  O     -503.095    -503.857     290.043
  C     -505.199    -502.880     290.375
  C     -505.817    -501.765     290.778
  O     -505.439    -501.300     287.206
  O     -507.936    -500.909     286.786
  H     -504.438    -497.176     292.073
  H     -505.585    -501.962     286.502
  H     -502.252    -502.211     291.770
  H     -505.691    -503.653     289.800
  H     -506.864    -501.606     290.538
  H     -505.522    -499.210     292.819
  H     -505.029    -498.834     289.831
  H     -506.512    -496.956     289.691
  H     -508.574    -498.136     291.036
  H     -508.591    -500.157     289.512
  H     -508.389    -498.634     288.657
  P     -506.971    -495.103     291.461
  C     -504.993    -494.340     292.905
  O     -506.391    -494.296     292.713
  O     -508.364    -494.764     291.055
  O     -505.915    -494.750     290.301
  H     -506.188    -493.932     289.842
  H     -504.674    -493.416     293.396
  H     -504.458    -494.430     291.954
  H     -504.740    -495.185     293.553
  H     -506.394    -497.787     284.813
  H     -507.875    -498.342     285.557
  H     -506.937    -499.428     284.560

 3  4  5  6  7  8  9  10  11  12  13  23  28  29  30  31  32 0
 6-311+G(2d,p)
 ****
 33  34 0
 6-311+G(2d,p)
 ****
 1  2  14  15  16  17  18  19  20  21  22  24  25  26  27 0
 3-21G
 ****
 35  36  37  38  39  40  41  42  43  44  45 0
 3-21G
 ****


