%nproc=1
%NoSave
%Mem=1900MB
#P OB98/GEN NMR

erre ene a

0 1
  C       22.721    -101.901      32.187
  O       21.756    -100.872      32.280
  H       22.985    -102.225      33.197
  H       23.620    -101.525      31.692
  H       22.317    -102.754      31.635
  P       21.094    -100.378      30.901
  C       21.490     -97.798      31.169
  O       20.582     -98.885      31.184
  C       20.811     -96.526      31.679
  O       19.931     -96.022      30.644
  C       19.975     -96.736      32.941
  O       20.107     -95.582      33.771
  C       18.554     -96.836      32.415
  O       17.592     -96.498      33.412
  C       18.607     -95.896      31.203
  N       17.579     -96.208      30.212
  C       16.401     -95.457      30.270
  O       16.258     -94.596      31.139
  N       15.398     -95.725      29.375
  C       15.529     -96.707      28.538
  N       14.490     -96.937      27.690
  C       16.731     -97.561      28.477
  C       17.710     -97.252      29.325
  O       19.748    -101.243      30.861
  O       21.973    -100.541      29.708
  H       17.788     -97.030      34.216
  H       19.304    -101.313      31.722
  H       16.787     -98.377      27.772
  H       18.633     -97.822      29.343
  H       18.477     -94.853      31.518
  H       18.349     -97.864      32.087
  H       20.256     -97.626      33.505
  H       21.581     -95.762      31.835
  H       13.676     -96.341      27.778
  H       21.864     -97.629      30.154
  H       14.461     -97.703      27.036
  H       22.340     -98.057      31.808
  P       21.385     -95.446      34.728
  C       20.323     -96.213      36.949
  O       20.887     -95.133      36.221
  O       22.480     -94.564      34.229
  O       21.898     -96.965      34.854
  H       22.874     -96.953      34.850
  H       20.033     -95.875      37.922
  H       21.047     -96.995      37.044
  H       19.464     -96.583      36.430

 6  7  8  9  10  11  12  13  14  15  16  26  30  31  32  33  35 0
 6-311+G(2d,p)
 ****
 37  38 0
 6-311+G(2d,p)
 ****
 1  2  3  4  5  17  18  19  20  21  22  23  24  25 0
 3-21G
 ****
 27  28  29  34  36  39  40  41  42  43  44  45  46 0
 3-21G
 ****


