%nproc=1
%NoSave
%Mem=1900MB
#P OB98/GEN NMR

erre ene a

0 1
  C      101.617     175.087     101.263
  O      101.831     176.396     101.764
  P      100.619     177.443     101.652
  C       99.300     176.073     103.421
  O       99.292     176.680     102.136
  C       97.875     175.854     103.930
  O       97.935     175.218     105.237
  C       97.047     177.140     104.083
  O       95.693     176.800     103.760
  C       97.200     177.443     105.563
  O       96.239     178.354     106.069
  C       97.145     176.030     106.136
  N       95.995     174.923     110.992
  C       95.272     174.836     109.853
  N       95.649     175.141     108.594
  C       96.923     175.567     108.570
  C       97.776     175.726     109.648
  C       97.266     175.380     110.911
  N       98.005     175.479     112.073
  N       99.000     176.214     109.240
  C       98.888     176.348     107.934
  N       97.658     175.952     107.484
  O      100.405     177.579     100.072
  O      100.867     178.769     102.301
  H       96.429     179.254     105.740
  H      100.198     178.500      99.823
  H       94.255     174.472     109.969
  H       99.653     176.738     107.278
  H       96.125     175.628     106.140
  H       98.186     177.891     105.733
  H       97.378     177.949     103.426
  H       97.368     175.156     103.251
  H       99.820     176.727     104.127
  H       97.490     175.400     112.938
  H       98.865     176.010     112.028
  H       99.849     175.127     103.372
  P       94.708     177.953     103.235
  C       94.663     176.906     100.890
  O       95.016     178.038     101.662
  O       95.455     179.262     103.780
  O       93.283     177.831     103.651
  H       96.397     179.264     103.537
  H       94.834     177.136      99.835
  H       93.606     176.663     101.033
  H       95.286     176.053     101.172
  H      102.502     174.502     101.403
  H      101.384     175.138     100.220
  H      100.803     174.633     101.788

 3  4  5  6  7  8  9  10  11  12  22  25  29  30  31  32 0
 6-311+G(2d,p)
 ****
 33  36  37 0
 6-311+G(2d,p)
 ****
 1  2  13  14  15  16  17  18  19  20  21  23  24  26 0
 3-21G
 ****
 27  28  34  35  38  39  40  41  42  43  44  45  46  47  48 0
 3-21G
 ****


