%nproc=1
%NoSave
%Mem=1900MB
#P OB98/GEN NMR

erre ene a

0 1
  C      -72.148      -3.547     156.478
  O      -71.357      -4.209     155.512
  H      -72.360      -4.241     157.295
  H      -73.095      -3.227     156.034
  H      -71.613      -2.682     156.879
  P      -70.898      -3.343     154.241
  C      -72.093      -2.648     152.038
  O      -72.230      -3.041     153.398
  C      -73.441      -2.183     151.496
  O      -73.797      -0.924     152.111
  C      -73.457      -1.925     149.994
  O      -73.573      -3.125     149.251
  C      -74.668      -1.011     149.863
  O      -75.889      -1.759     149.805
  C      -74.614      -0.198     151.164
  N      -75.115       4.091     148.456
  C      -75.845       2.954     148.491
  N      -75.654       1.860     149.258
  C      -74.587       2.024     150.058
  C      -73.745       3.122     150.128
  C      -74.045       4.199     149.278
  N      -73.282       5.341     149.216
  N      -72.731       2.896     151.038
  C      -72.962       1.691     151.516
  N      -74.074       1.129     150.957
  O      -70.117      -4.416     153.343
  O      -70.056      -2.153     154.552
  H      -75.856      -2.285     148.983
  H      -69.161      -4.365     153.532
  H      -76.690       2.917     147.809
  H      -72.352       1.182     152.253
  H      -75.606      -0.079     151.618
  H      -74.615      -0.407     148.957
  H      -72.560      -1.368     149.694
  H      -74.202      -2.924     151.773
  H      -71.743      -3.502     151.448
  H      -71.353      -1.843     151.974
  H      -73.543       6.064     148.565
  H      -72.423       5.386     149.747
  P      -73.091      -3.129     147.724
  C      -73.743      -1.815     145.577
  O      -73.776      -1.875     146.994
  O      -73.852      -4.393     147.102
  O      -71.613      -3.220     147.537
  H      -73.250      -5.157     147.045
  H      -74.238      -0.926     145.246
  H      -74.240      -2.672     145.172
  H      -72.726      -1.802     145.244

 6  7  8  9  10  11  12  13  14  15  25  28  32  33  34  35 0
 6-311+G(2d,p)
 ****
 36  37  40 0
 6-311+G(2d,p)
 ****
 1  2  3  4  5  16  17  18  19  20  21  22  23  24 0
 3-21G
 ****
 26  27  29  30  31  38  39 41  42  43  44  45  46  47  48 0
 3-21G
 ****


