%nproc=1
%NoSave
%Mem=1900MB
#P OB98/GEN NMR

erre ene a

0 1
  C      201.397    -889.691    -526.149
  O      200.314    -890.595    -526.031
  H      202.015    -889.995    -527.000
  H      202.013    -889.703    -525.249
  H      201.023    -888.676    -526.326
  P      199.342    -890.388    -524.772
  C      200.217    -892.277    -523.214
  O      199.178    -891.823    -524.071
  C      199.651    -893.266    -522.198
  O      198.705    -892.588    -521.330
  C      198.872    -894.419    -522.821
  O      199.718    -895.437    -523.339
  C      198.055    -894.893    -521.630
  O      198.803    -895.802    -520.803
  C      197.756    -893.578    -520.889
  N      196.370    -893.146    -521.090
  C      195.394    -893.979    -520.559
  O      195.650    -895.031    -519.955
  N      194.096    -893.606    -520.779
  C      193.695    -892.522    -521.504
  O      192.515    -892.267    -521.714
  C      194.767    -891.682    -522.059
  C      196.044    -892.025    -521.830
  O      197.915    -890.130    -525.453
  O      199.722    -889.284    -523.849
  H      197.673    -889.193    -525.377
  H      199.151    -896.483    -521.412
  H      193.374    -894.195    -520.402
  H      194.485    -890.814    -522.651
  H      196.855    -891.434    -522.243
  H      197.918    -893.713    -519.809
  H      197.153    -895.412    -521.961
  H      198.188    -894.041    -523.594
  H      200.467    -893.649    -521.582
  H      200.648    -891.426    -522.673
  H      201.006    -892.739    -523.819
  P      199.508    -895.872    -524.871
  C      199.714    -898.426    -524.278
  O      200.201    -897.314    -525.011
  O      200.508    -894.867    -525.599
  O      198.087    -895.786    -525.326
  H      201.246    -894.585    -525.016
  H      200.304    -899.289    -524.506
  H      198.694    -898.610    -524.545
  H      199.777    -898.218    -523.230

 6  7  8  9  10  11  12  13  14  15  16  27  31  32  33  34  35 0
 6-311+G(2d,p)
 ****
 36  37 0
 6-311+G(2d,p)
 ****
 1  2  3  4  5  17  18  19  20  21  22  23  24  25 0
 3-21G
 ****
 26  28  29  30  38  39  40  41  42  43  44  45 0
 3-21G
 ****


