%nproc=1
%NoSave
%Mem=1900MB
#P OB98/GEN NMR

erre ene a

0 1
  C     -247.298     -27.104      11.883
  O     -246.125     -26.927      12.650
  P     -245.323     -28.136      13.318
  C     -246.172     -27.508      15.692
  O     -246.050     -28.519      14.700
  C     -246.722     -28.036      17.025
  O     -248.043     -28.574      16.821
  C     -245.852     -29.195      17.530
  O     -244.667     -28.935      18.252
  C     -246.827     -30.146      18.216
  O     -246.847     -29.980      19.636
  C     -248.182     -29.766      17.609
  N     -250.316     -34.363      17.514
  C     -250.115     -33.523      18.589
  N     -250.339     -34.058      19.811
  N     -249.709     -32.283      18.475
  C     -249.433     -31.925      17.196
  C     -249.606     -32.665      16.049
  C     -250.095     -34.015      16.190
  O     -250.207     -34.822      15.269
  N     -249.153     -32.002      14.940
  C     -248.667     -30.873      15.416
  N     -248.778     -30.799      16.787
  O     -243.831     -28.048      13.294
  O     -245.747     -29.365      12.360
  H     -247.533     -30.572      19.997
  H     -244.981     -29.967      12.297
  H     -250.556     -35.334      17.672
  H     -248.196     -30.096      14.824
  H     -248.905     -29.532      18.404
  H     -246.542     -31.188      18.032
  H     -250.512     -35.043      19.944
  H     -245.509     -29.739      16.642
  H     -250.041     -33.526      20.623
  H     -246.838     -27.226      17.752
  H     -246.827     -26.728      15.288
  H     -245.195     -27.047      15.865
  P     -243.428     -29.930      18.431
  C     -243.891     -30.857      20.772
  O     -243.882     -31.137      19.384
  O     -242.399     -29.118      19.355
  O     -242.765     -30.350      17.159
  H     -241.499     -29.474      19.234
  H     -243.913     -31.798      21.324
  H     -244.784     -30.274      21.025
  H     -243.000     -30.294      21.064
  H     -247.650     -26.152      11.544
  H     -248.051     -27.569      12.485
  H     -247.082     -27.725      11.039

 3  4  5  6  7  8  9  10  11  12  23  26  30  31 0
 6-311+G(2d,p)
 ****
 33  35  36  37  38 0
 6-311+G(2d,p)
 ****
 1  2  13  14  15  16  17  18  19  20  21  22  24  25 0
 3-21G
 ****
 27  28  29  32  34  39  40  41  42  43  44  45  46  47  48  49 0
 3-21G
 ****


