%nproc=1
%NoSave
%Mem=1900MB
#P OB98/GEN NMR

erre ene a

0 1
  C       61.810    -131.085    -259.521
  O       62.454    -131.328    -258.282
  H       60.942    -130.444    -259.347
  H       61.471    -132.031    -259.947
  H       62.489    -130.581    -260.218
  P       63.927    -131.961    -258.343
  C       62.755    -134.252    -257.976
  O       63.835    -133.397    -257.623
  C       63.098    -135.703    -257.645
  O       61.943    -136.553    -257.835
  C       64.213    -136.296    -258.504
  O       65.500    -135.956    -257.994
  C       63.941    -137.786    -258.330
  O       64.418    -138.224    -257.039
  C       62.404    -137.830    -258.361
  N       60.768    -141.265    -261.723
  C       61.363    -141.445    -260.486
  N       61.546    -142.728    -260.089
  N       61.739    -140.462    -259.700
  C       61.506    -139.236    -260.243
  C       60.939    -138.931    -261.461
  C       60.511    -140.026    -262.305
  O       59.970    -139.915    -263.402
  N       60.873    -137.580    -261.657
  C       61.418    -137.065    -260.569
  N       61.830    -138.032    -259.681
  O       64.740    -131.065    -257.293
  O       64.575    -131.950    -259.687
  H       64.363    -139.197    -257.027
  H       65.287    -130.422    -257.785
  H       60.509    -142.057    -262.292
  H       61.537    -136.007    -260.377
  H       62.001    -138.615    -257.714
  H       64.443    -138.395    -259.081
  H       61.300    -143.531    -260.650
  H       64.110    -136.025    -259.565
  H       61.978    -142.883    -259.185
  H       63.359    -135.752    -256.579
  H       62.567    -134.158    -259.050
  H       61.864    -133.943    -257.424
  P       66.682    -135.680    -259.056
  C       67.211    -138.211    -258.894
  O       67.727    -136.896    -258.919
  O       67.459    -134.442    -258.403
  O       66.233    -135.372    -260.445
  H       67.327    -133.644    -258.950
  H       68.017    -138.909    -258.800
  H       66.678    -138.402    -259.802
  H       66.548    -138.318    -258.061

 6  7  8  9  10  11  12  13  14  15  26  29  33  34 0
 6-311+G(2d,p)
 ****
 36  38  39  40  41 0
 6-311+G(2d,p)
 ****
 1  2  3  4  5  16  17  18  19  20  21  22  23  24  25 0
 3-21G
 ****
 27  28  30  31  32  35  37  42  43  44  45  46  47 0
 3-21G
 ****
 48  49 0
 3-21G
 ****


