%nproc=1
%NoSave
%Mem=1900MB
#P OB98/GEN NMR

erre ene a

0 1
  C       -3.256     521.507     878.552
  O       -4.270     522.200     877.817
  P       -4.722     521.735     876.346
  C       -3.534     523.492     874.891
  O       -3.591     522.120     875.267
  C       -2.575     523.757     873.723
  O       -2.998     523.043     872.527
  C       -2.439     525.238     873.326
  O       -1.101     525.392     872.839
  C       -3.441     525.362     872.197
  O       -3.219     526.492     871.359
  C       -3.226     524.023     871.493
  N       -6.195     525.358     867.534
  C       -5.027     525.856     867.991
  N       -4.285     525.431     869.024
  C       -4.822     524.335     869.594
  C       -6.009     523.703     869.227
  C       -6.715     524.276     868.152
  N       -7.926     523.796     867.714
  N       -6.261     522.635     870.058
  C       -5.258     522.622     870.910
  N       -4.358     523.630     870.662
  O       -6.097     522.177     875.964
  O       -4.656     520.140     876.404
  H       -3.735     526.380     870.544
  H       -5.464     519.770     875.994
  H       -4.644     526.731     867.458
  H       -5.139     521.929     871.728
  H       -2.343     524.035     870.848
  H       -4.451     525.445     872.610
  H       -2.632     525.932     874.149
  H       -1.602     523.348     873.996
  H       -3.220     524.076     875.765
  H       -8.405     524.323     866.994
  H       -8.391     523.067     868.238
  H       -4.541     523.825     874.619
  P        0.020     526.173     873.675
  C        0.494     528.257     872.258
  O       -0.195     527.730     873.381
  O        1.413     525.694     873.465
  O       -0.435     526.019     875.199
  H        0.325     526.197     875.786
  H        1.547     528.397     872.512
  H        0.061     529.224     871.995
  H        0.403     527.581     871.399
  H       -3.115     521.983     879.500
  H       -2.339     521.529     878.002
  H       -3.557     520.491     878.704

 3  4  5  6  7  8  9  10  11  12  22  25  29  30  31  32 0
 6-311+G(2d,p)
 ****
 33  36  37 0
 6-311+G(2d,p)
 ****
 1  2  13  14  15  16  17  18  19  20  21  23  24  26 0
 3-21G
 ****
 27  28  34  35  38  39  40  41  42  43  44  45  46  47  48 0
 3-21G
 ****


