%nproc=1
%NoSave
%Mem=1900MB
#P OB98/GEN NMR

erre ene a

0 1
  C      -87.377      38.298    -155.821
  O      -88.072      37.130    -156.223
  P      -89.636      37.035    -155.868
  C      -91.039      36.731    -153.704
  O      -89.746      36.870    -154.277
  C      -90.984      35.885    -152.431
  O      -90.736      34.499    -152.799
  C      -89.888      36.298    -151.436
  O      -90.411      36.063    -150.125
  C      -88.774      35.321    -151.767
  O      -87.783      35.212    -150.760
  C      -89.589      34.060    -152.038
  N      -86.665      29.890    -151.591
  C      -87.319      30.632    -150.671
  N      -88.087      31.726    -150.865
  C      -88.155      32.030    -152.172
  C      -87.528      31.380    -153.221
  C      -86.752      30.257    -152.891
  N      -86.077      29.506    -153.833
  N      -87.809      31.998    -154.421
  C      -88.593      33.008    -154.103
  N      -88.846      33.055    -152.760
  O      -90.042      35.587    -156.415
  O      -90.484      38.116    -156.461
  H      -87.360      36.081    -150.612
  H      -90.930      35.598    -156.820
  H      -87.214      30.306    -149.640
  H      -88.989      33.735    -154.799
  H      -89.958      33.603    -151.110
  H      -88.267      35.655    -152.680
  H      -89.599      37.350    -151.524
  H      -91.968      35.923    -151.949
  H      -91.699      36.233    -154.419
  H      -85.395      28.852    -153.478
  H      -85.981      29.907    -154.758
  H      -91.453      37.724    -153.498
  P      -89.896      36.976    -148.909
  C      -87.680      36.981    -147.610
  O      -88.581      36.215    -148.385
  O      -90.960      36.597    -147.773
  O      -89.779      38.434    -149.192
  H      -91.046      35.633    -147.670
  H      -86.890      36.320    -147.242
  H      -88.196      37.426    -146.756
  H      -87.228      37.762    -148.227
  H      -86.353      38.224    -156.121
  H      -87.431      38.397    -154.757
  H      -87.823      39.155    -156.282

 3  4  5  6  7  8  9  10  11  12  22  25  29  30  31  32 0
 6-311+G(2d,p)
 ****
 33  36  37 0
 6-311+G(2d,p)
 ****
 1  2  13  14  15  16  17  18  19  20  21  23  24  26 0
 3-21G
 ****
 27  28  34  35  38  39  40  41  42  43  44  45  46  47  48 0
 3-21G
 ****


