%nproc=1
%NoSave
%Mem=1900MB
#P OB98/GEN NMR

erre ene a

0 1
  C       62.839      35.830      17.654
  O       62.099      34.643      17.430
  P       60.560      34.799      16.996
  C       59.535      34.050      19.262
  O       59.739      35.113      18.339
  C       58.127      34.092      19.858
  O       57.944      35.358      20.539
  C       57.006      33.942      18.826
  O       55.959      33.175      19.424
  C       56.520      35.367      18.622
  O       55.173      35.404      18.153
  C       56.735      35.960      20.024
  N       56.834      37.417      19.996
  C       55.711      38.135      20.421
  O       54.676      37.540      20.719
  N       55.776      39.509      20.448
  C       56.828      40.110      19.985
  N       56.841      41.472      20.036
  C       57.983      39.392      19.412
  C       57.931      38.062      19.471
  O       60.131      33.298      16.644
  O       60.323      35.736      15.856
  H       54.946      36.339      17.955
  H       59.460      33.283      15.934
  H       58.820      39.945      19.008
  H       58.744      37.454      19.096
  H       55.911      35.680      20.694
  H       57.156      35.876      17.888
  H       57.340      33.457      17.904
  H       58.051      33.302      20.618
  H       56.030      41.941      20.419
  H       60.255      34.146      20.082
  H       57.617      42.029      19.699
  H       59.716      33.091      18.762
  P       55.119      32.194      18.475
  C       53.111      33.795      18.539
  O       54.064      33.140      17.722
  O       54.176      31.448      19.539
  O       55.866      31.211      17.636
  H       53.649      30.763      19.089
  H       52.552      34.506      17.925
  H       53.605      34.340      19.346
  H       52.411      33.064      18.952
  H       63.840      35.578      17.935
  H       62.380      36.394      18.439
  H       62.856      36.414      16.758

 3  4  5  6  7  8  9  10  11  12  13  21  23  27  28  29  30  32 0
 6-311+G(2d,p)
 ****
 34  35 0
 6-311+G(2d,p)
 ****
 1  2  14  15  16  17  18  19  20  22  24  25  26 0
 3-21G
 ****
 31  33  36  37  38  39  40  41  42  43  44  45  46 0
 3-21G
 ****


