%nproc=1
%NoSave
%Mem=1900MB
#P OB98/GEN NMR

erre ene a

0 1
  C     -216.672     236.465     -29.507
  O     -217.747     236.730     -28.627
  H     -216.677     235.400     -29.754
  H     -215.718     236.710     -29.029
  H     -216.785     237.038     -30.431
  P     -217.935     238.226     -28.081
  C     -216.687     239.708     -26.371
  O     -216.644     238.536     -27.178
  C     -215.289     240.043     -25.852
  O     -214.407     240.350     -26.952
  C     -215.241     241.245     -24.915
  O     -215.615     240.869     -23.598
  C     -213.775     241.623     -25.015
  O     -212.983     240.709     -24.232
  C     -213.496     241.398     -26.515
  N     -212.529     246.347     -27.141
  C     -212.254     245.518     -26.070
  N     -211.656     246.095     -25.005
  N     -212.543     244.241     -26.044
  C     -213.194     243.818     -27.147
  C     -213.542     244.545     -28.265
  C     -213.161     245.942     -28.311
  O     -213.366     246.707     -29.248
  N     -214.280     243.793     -29.142
  C     -214.337     242.599     -28.588
  N     -213.699     242.565     -27.366
  O     -219.236     238.518     -27.398
  O     -217.711     239.147     -29.369
  H     -213.078     239.826     -24.635
  H     -218.558     239.337     -29.818
  H     -212.290     247.326     -27.102
  H     -214.815     241.731     -29.019
  H     -212.476     241.046     -26.699
  H     -213.565     242.627     -24.647
  H     -211.547     247.096     -24.907
  H     -215.849     242.078     -25.289
  H     -211.498     245.514     -24.185
  H     -214.889     239.145     -25.360
  H     -217.367     239.507     -25.537
  H     -217.080     240.555     -26.946
  P     -216.124     241.956     -22.525
  C     -215.039     244.012     -21.383
  O     -214.898     242.975     -22.342
  O     -216.647     241.382     -21.254
  O     -217.179     242.846     -23.327
  H     -218.088     242.455     -23.328
  H     -214.151     244.609     -21.370
  H     -215.195     243.584     -20.415
  H     -215.877     244.625     -21.641

 6  7  8  9  10  11  12  13  14  15  26  29  33  34 0
 6-311+G(2d,p)
 ****
 36  38  39  40  41 0
 6-311+G(2d,p)
 ****
 1  2  3  4  5  16  17  18  19  20  21  22  23  24  25 0
 3-21G
 ****
 27  28  30  31  32  35  37  42  43  44  45  46  47 0
 3-21G
 ****
 48  49 0
 3-21G
 ****


