%nproc=1
%NoSave
%Mem=1900MB
#P OB98/GEN NMR

erre ene a

0 1
  C       29.215      85.635    -119.008
  O       28.805      84.865    -120.119
  P       29.295      83.353    -120.304
  C       31.129      84.060    -121.951
  O       30.839      83.379    -120.737
  C       32.572      83.818    -122.394
  O       33.478      84.377    -121.408
  C       32.931      82.336    -122.579
  O       33.800      82.248    -123.713
  C       33.683      82.007    -121.303
  O       34.531      80.874    -121.450
  C       34.407      83.335    -121.047
  N       34.849      83.471    -119.668
  C       36.226      83.548    -119.449
  O       37.010      83.369    -120.382
  N       36.675      83.810    -118.179
  C       35.833      83.803    -117.190
  N       36.307      84.135    -115.958
  C       34.402      83.475    -117.357
  C       33.973      83.364    -118.610
  O       28.423      82.507    -121.175
  O       29.350      82.771    -118.813
  H       28.828      81.944    -118.774
  H       35.018      80.733    -120.611
  H       33.767      83.357    -116.491
  H       32.933      83.153    -118.838
  H       35.278      83.433    -121.709
  H       32.971      81.797    -120.497
  H       32.053      81.704    -122.742
  H       32.735      84.361    -123.332
  H       37.283      84.393    -115.890
  H       30.982      85.129    -121.786
  H       35.694      84.462    -115.213
  H       30.426      83.743    -122.732
  P       33.643      80.986    -124.696
  C       35.139      79.466    -123.217
  O       33.883      79.658    -123.832
  O       34.999      81.076    -125.553
  O       32.464      80.997    -125.613
  H       34.860      80.641    -126.415
  H       35.146      78.486    -122.731
  H       35.309      80.232    -122.453
  H       35.941      79.496    -123.957
  H       28.781      86.611    -119.071
  H       30.282      85.719    -119.006
  H       28.893      85.159    -118.106

 3  4  5  6  7  8  9  10  11  12  13  24  27  28  29  30  32 0
 6-311+G(2d,p)
 ****
 34  35 0
 6-311+G(2d,p)
 ****
 1  2  14  15  16  17  18  19  20  21  22  23  25  26 0
 3-21G
 ****
 31  33  36  37  38  39  40  41  42  43  44  45  46 0
 3-21G
 ****


