%nproc=1
%NoSave
%Mem=1900MB
#P OB98/GEN NMR

erre ene a

0 1
  C      -62.860     645.598     203.403
  O      -61.510     645.996     203.467
  H      -62.992     644.940     202.544
  H      -63.496     646.480     203.273
  H      -63.163     645.062     204.307
  P      -60.938     646.573     204.847
  C      -61.717     649.001     204.433
  O      -60.610     648.129     204.638
  C      -61.314     650.254     203.654
  O      -60.409     651.049     204.441
  C      -60.586     649.919     202.350
  O      -61.439     649.694     201.237
  C      -59.732     651.169     202.138
  O      -60.450     652.176     201.407
  C      -59.442     651.643     203.563
  N      -54.541     653.064     203.843
  C      -55.567     653.643     203.128
  N      -55.235     654.707     202.362
  N      -56.801     653.201     203.148
  C      -56.956     652.073     203.879
  C      -56.009     651.398     204.616
  C      -54.666     651.939     204.642
  O      -53.722     651.473     205.273
  N      -56.525     650.263     205.189
  C      -57.762     650.209     204.731
  N      -58.091     651.326     203.997
  O      -59.476     645.920     204.944
  O      -61.746     646.245     206.064
  H      -61.295     652.335     201.871
  H      -59.242     645.781     205.881
  H      -53.618     653.469     203.808
  H      -58.472     649.416     204.939
  H      -59.555     652.732     203.656
  H      -58.833     650.931     201.553
  H      -54.291     655.034     202.244
  H      -59.913     649.065     202.483
  H      -55.914     655.041     201.676
  H      -62.207     650.867     203.469
  H      -62.076     649.279     205.426
  H      -62.527     648.472     203.925
  P      -61.785     648.210     200.756
  C      -59.563     647.669     199.460
  O      -60.956     647.907     199.428
  O      -63.293     648.348     200.232
  O      -61.650     647.148     201.801
  H      -63.922     648.038     200.908
  H      -59.209     647.489     198.466
  H      -59.361     646.814     200.071
  H      -59.064     648.524     199.866

 6  7  8  9  10  11  12  13  14  15  26  29  33  34 0
 6-311+G(2d,p)
 ****
 36  38  39  40  41 0
 6-311+G(2d,p)
 ****
 1  2  3  4  5  16  17  18  19  20  21  22  23  24  25 0
 3-21G
 ****
 27  28  30  31  32  35  37  42  43  44  45  46  47 0
 3-21G
 ****
 48  49 0
 3-21G
 ****


