%nproc=1
%NoSave
%Mem=1900MB
#P OB98/GEN NMR

erre ene a

0 1
  C       71.840      80.339    -132.615
  O       70.866      80.648    -133.602
  P       71.355      80.758    -135.126
  C       72.567      82.544    -136.550
  O       72.169      82.136    -135.248
  C       73.328      83.864    -136.496
  O       74.505      83.695    -135.660
  C       73.807      84.376    -137.867
  O       73.568      85.787    -137.956
  C       75.311      84.166    -137.817
  O       76.005      85.058    -138.683
  C       75.575      84.392    -136.327
  N       80.200      85.851    -134.911
  C       79.050      86.599    -135.076
  N       79.170      87.935    -134.893
  N       77.891      86.090    -135.397
  C       77.914      84.739    -135.517
  C       78.986      83.888    -135.368
  C       80.277      84.474    -135.074
  O       81.349      83.875    -135.002
  N       78.614      82.580    -135.554
  C       77.321      82.639    -135.817
  N       76.860      83.932    -135.853
  O       69.991      81.048    -135.914
  O       72.042      79.549    -135.661
  H       75.745      85.963    -138.427
  H       69.863      80.372    -136.609
  H       81.071      86.298    -134.680
  H       76.690      81.781    -136.017
  H       75.494      85.461    -136.084
  H       75.542      83.136    -138.116
  H       80.023      88.388    -134.608
  H       73.345      83.869    -138.720
  H       78.333      88.496    -134.988
  H       72.694      84.616    -136.005
  H       71.676      82.670    -137.174
  H       73.196      81.764    -136.987
  P       72.814      86.290    -139.281
  C       73.502      86.474    -141.791
  O       73.892      86.179    -140.463
  O       72.668      87.869    -139.048
  O       71.503      85.621    -139.525
  H       71.919      88.220    -139.565
  H       72.501      86.918    -141.836
  H       73.507      85.553    -142.375
  H       74.220      87.177    -142.224
  H       71.373      80.299    -131.653
  H       72.597      81.095    -132.612
  H       72.283      79.391    -132.836

 3  4  5  6  7  8  9  10  11  12  23  26  30  31  33  0
 6-311+G(2d,p)
 ****
 35  36  37  38 0
 6-311+G(2d,p)
 ****
 1  2  13  14  15  16  17  18  19  20  21  22  24  25  27  28  29 0
 3-21G
 ****
 32  34  39  40  41  42  43  44  45  46  47  48  49 0
 3-21G
 ****


