%nproc=1
%NoSave
%Mem=1900MB
#P OB98/GEN NMR

erre ene a

0 1
  C       18.672    -203.531    -169.197
  O       17.566    -204.141    -169.833
  H       18.448    -202.486    -168.975
  H       18.874    -204.058    -168.259
  H       19.558    -203.596    -169.835
  P       17.103    -203.495    -171.228
  C       15.848    -201.475    -170.206
  O       16.958    -201.912    -170.976
  C       15.470    -200.048    -170.597
  O       16.677    -199.240    -170.580
  C       14.834    -199.925    -171.992
  O       13.622    -199.166    -171.929
  C       15.855    -199.143    -172.798
  O       15.259    -198.277    -173.758
  C       16.614    -198.375    -171.722
  N       19.210    -195.737    -175.233
  C       17.929    -195.643    -174.807
  N       17.327    -196.310    -173.802
  C       18.197    -197.127    -173.184
  C       19.537    -197.311    -173.488
  C       20.038    -196.587    -174.581
  N       21.326    -196.727    -175.049
  N       20.107    -198.240    -172.636
  C       19.118    -198.640    -171.861
  N       17.942    -198.004    -172.166
  O       15.587    -203.994    -171.378
  O       17.932    -203.891    -172.402
  H       15.904    -197.574    -173.953
  H       15.515    -204.535    -172.188
  H       17.304    -194.942    -175.355
  H       19.185    -199.410    -171.104
  H       16.083    -197.462    -171.423
  H       16.511    -199.847    -173.326
  H       14.629    -200.899    -172.448
  H       14.798    -199.640    -169.832
  H       16.109    -201.496    -169.141
  H       21.570    -196.257    -175.907
  H       21.914    -197.440    -174.636
  H       15.004    -202.154    -170.376
  P       12.298    -199.974    -171.501
  C       11.293    -199.660    -173.877
  O       11.627    -200.571    -172.836
  O       11.295    -198.815    -171.043
  O       12.524    -200.963    -170.405
  H       10.992    -198.977    -170.131
  H       10.859    -200.196    -174.695
  H       12.178    -199.158    -174.209
  H       10.592    -198.940    -173.510

 6  7  8  9  10  11  12  13  14  15  25  28  32  33  34  35 0
 6-311+G(2d,p)
 ****
 36  39  40 0
 6-311+G(2d,p)
 ****
 1  2  3  4  5  16  17  18  19  20  21  22  23  24 0
 3-21G
 ****
 26  27  29  30  31  37  38  41  42  43  44  45  46  47  48 0
 3-21G
 ****


