%nproc=1
%NoSave
%Mem=1900MB
#P OB98/GEN NMR

erre ene a

0 1
  C      412.198     350.171     539.493
  O      411.862     348.882     538.988
  P      412.598     348.353     537.664
  C      414.859     347.290     537.031
  O      414.023     347.758     538.090
  C      416.214     346.831     537.578
  O      416.848     347.858     538.366
  C      416.115     345.622     538.496
  O      415.876     344.442     537.752
  C      417.459     345.681     539.208
  O      418.492     345.090     538.409
  C      417.693     347.204     539.336
  N      417.456     347.708     540.680
  C      418.593     347.931     541.464
  O      419.711     347.663     541.022
  N      418.430     348.438     542.728
  C      417.239     348.692     543.177
  N      417.138     349.193     544.436
  C      416.012     348.460     542.386
  C      416.194     347.964     541.167
  O      412.617     349.302     536.517
  O      411.762     347.027     537.300
  H      418.450     345.527     537.538
  H      411.788     346.899     536.332
  H      415.040     348.691     542.802
  H      415.345     347.759     540.520
  H      418.727     347.451     539.063
  H      417.438     345.139     540.158
  H      415.306     345.775     539.220
  H      416.863     346.597     536.719
  H      417.994     349.333     544.959
  H      415.005     348.091     536.303
  H      416.263     349.467     544.852
  H      414.346     346.472     536.510
  P      414.562     343.593     538.103
  C      412.055     343.847     537.480
  O      413.406     344.046     537.090
  O      414.094     344.222     539.507
  O      414.777     342.117     538.220
  H      413.692     343.528     540.056
  H      411.419     344.479     536.850
  H      411.896     344.122     538.525
  H      411.776     342.806     537.322
  H      411.623     350.370     540.373
  H      411.984     350.912     538.751
  H      413.240     350.199     539.734

 3  4  5  6  7  8  9  10  11  12  13  23  27  28  29  30  32 0
 6-311+G(2d,p)
 ****
 34  35 0
 6-311+G(2d,p)
 ****
 1  2  14  15  16  17  18  19  20  21  22  24  25  26 0
 3-21G
 ****
 31  33  36  37  38  39  40  41  42  43  44  45  46 0
 3-21G
 ****


