%nproc=1
%NoSave
%Mem=1900MB
#P OB98/GEN NMR

erre ene a

0 1
  C     -313.561     619.114     -26.883
  O     -313.379     617.881     -27.573
  P     -314.656     616.917     -27.712
  C     -313.402     614.613     -27.769
  O     -314.175     615.580     -28.456
  C     -312.449     613.884     -28.734
  O     -313.239     613.043     -29.618
  C     -311.640     614.792     -29.656
  O     -310.533     614.047     -30.172
  C     -312.624     615.053     -30.776
  O     -311.974     615.533     -31.951
  C     -313.340     613.692     -30.913
  N     -314.763     613.806     -31.309
  C     -315.059     614.175     -32.618
  O     -314.208     614.419     -33.472
  N     -316.389     614.303     -32.922
  C     -317.432     614.065     -32.080
  O     -318.600     614.278     -32.370
  C     -317.070     613.542     -30.759
  C     -315.778     613.447     -30.435
  O     -315.570     617.661     -28.794
  O     -315.374     616.685     -26.430
  H     -312.682     615.858     -32.553
  H     -316.335     618.079     -28.354
  H     -316.617     614.641     -33.847
  H     -317.869     613.268     -30.082
  H     -315.490     613.082     -29.448
  H     -312.847     613.057     -31.659
  H     -313.340     615.818     -30.464
  H     -311.286     615.712     -29.192
  H     -311.783     613.226     -28.160
  H     -314.057     613.894     -27.273
  H     -312.818     615.101     -26.983
  P     -309.073     614.361     -29.574
  C     -307.956     615.125     -31.757
  O     -308.034     614.115     -30.763
  O     -308.746     613.696     -28.273
  O     -309.081     615.959     -29.436
  H     -308.381     616.239     -28.818
  H     -306.951     615.135     -32.172
  H     -308.186     616.112     -31.343
  H     -308.669     614.893     -32.552
  H     -312.637     619.652     -26.865
  H     -313.879     618.918     -25.880
  H     -314.304     619.698     -27.385

 3  4  5  6  7  8  9  10  11  12  13  23  28  29  30  31  32 0
 6-311+G(2d,p)
 ****
 33  34 0
 6-311+G(2d,p)
 ****
 1  2  14  15  16  17  18  19  20  21  22  24  25  26  27 0
 3-21G
 ****
 35  36  37  38  39  40  41  42  43  44  45 0
 3-21G
 ****


