%nproc=1
%NoSave
%Mem=1900MB
#P OB98/GEN NMR

erre ene a

0 1
  C       67.987    -256.720    -145.572
  O       67.896    -256.292    -144.227
  H       67.736    -257.780    -145.646
  H       67.278    -256.145    -146.174
  H       68.997    -256.548    -145.956
  P       68.856    -257.037    -143.178
  C       66.863    -257.525    -141.600
  O       67.932    -258.069    -142.360
  C       66.971    -257.980    -140.146
  O       66.701    -259.407    -140.097
  C       68.350    -257.734    -139.512
  O       68.212    -257.070    -138.250
  C       68.902    -259.125    -139.269
  O       69.697    -259.211    -138.091
  C       67.640    -259.974    -139.174
  N       69.162    -264.435    -137.226
  C       68.645    -263.332    -136.638
  N       68.170    -262.214    -137.224
  C       68.232    -262.315    -138.562
  C       68.709    -263.384    -139.304
  C       69.211    -264.476    -138.579
  N       69.788    -265.575    -139.176
  N       68.620    -263.118    -140.659
  C       68.137    -261.894    -140.731
  N       67.903    -261.363    -139.488
  O       69.184    -255.892    -142.106
  O       70.099    -257.607    -143.770
  H       69.138    -258.931    -137.344
  H       70.147    -255.734    -142.101
  H       68.617    -263.349    -135.552
  H       67.985    -261.331    -141.644
  H       67.194    -259.928    -138.172
  H       69.519    -259.421    -140.127
  H       69.012    -257.149    -140.158
  H       66.186    -257.483    -139.563
  H       65.907    -257.870    -142.011
  H       70.225    -266.259    -138.580
  H       69.927    -265.561    -140.178
  H       66.900    -256.433    -141.663
  P       68.060    -255.469    -138.301
  C       70.225    -255.361    -136.870
  O       69.493    -254.822    -137.965
  O       67.172    -255.145    -137.011
  O       67.412    -254.966    -139.549
  H       66.370    -254.655    -137.273
  H       71.151    -254.835    -136.767
  H       70.421    -256.398    -137.048
  H       69.653    -255.255    -135.972

 6  7  8  9  10  11  12  13  14  15  25  28  32  33  34  35 0
 6-311+G(2d,p)
 ****
 36  39  40 0
 6-311+G(2d,p)
 ****
 1  2  3  4  5  16  17  18  19  20  21  22  23  24 0
 3-21G
 ****
 26  27  29  30  31  37  38  41  42  43  44  45  46  47  48 0
 3-21G
 ****


