%nproc=1
%NoSave
%Mem=1900MB
#P OB98/GEN NMR

erre ene a

0 1
  C       10.414      35.926     390.105
  O       11.665      36.209     390.699
  H       10.552      35.828     389.025
  H        9.718      36.746     390.297
  H       10.005      34.990     390.496
  P       11.747      36.163     392.299
  C       12.032      34.288     394.077
  O       11.999      34.628     392.700
  C       11.612      32.831     394.266
  O       10.185      32.722     393.993
  C       12.334      31.848     393.335
  O       12.550      30.626     394.049
  C       11.317      31.607     392.235
  O       11.500      30.382     391.539
  C       10.010      31.660     393.032
  N        8.845      31.904     392.186
  C        7.650      31.292     392.550
  O        7.484      30.632     393.574
  N        6.608      31.462     391.675
  C        6.651      32.144     390.495
  O        5.688      32.244     389.743
  C        7.942      32.762     390.160
  C        8.963      32.612     391.006
  O       10.232      36.419     392.744
  O       12.698      37.131     392.921
  H       10.065      37.373     392.852
  H       12.384      30.413     391.119
  H        5.736      31.024     391.922
  H        8.016      33.303     389.226
  H        9.936      33.038     390.780
  H        9.870      30.730     393.595
  H       11.360      32.422     391.503
  H       13.285      32.220     392.942
  H       11.759      32.555     395.317
  H       11.338      34.933     394.626
  H       13.043      34.448     394.464
  P       14.067      30.237     394.402
  C       15.373      30.020     396.663
  O       14.121      30.119     395.998
  O       14.821      31.608     394.076
  O       14.555      29.049     393.643
  H       14.289      32.393     394.290
  H       15.212      29.950     397.718
  H       15.960      30.888     396.449
  H       15.890      29.147     396.322

 6  7  8  9  10  11  12  13  14  15  16  27  31  32  33  34  35 0
 6-311+G(2d,p)
 ****
 36  37 0
 6-311+G(2d,p)
 ****
 1  2  3  4  5  17  18  19  20  21  22  23  24  25 0
 3-21G
 ****
 26  28  29  30  38  39  40  41  42  43  44  45 0
 3-21G
 ****


