%nproc=1
%NoSave
%Mem=1900MB
#P OB98/GEN NMR

erre ene a

0 1
  C       36.051    -315.915      96.331
  O       37.398    -316.093      95.882
  P       37.841    -317.569      95.439
  C       37.338    -317.441      92.887
  O       36.986    -317.991      94.151
  C       37.038    -318.443      91.772
  O       35.628    -318.732      91.696
  C       37.416    -317.935      90.391
  O       38.810    -318.039      90.185
  C       36.589    -318.838      89.483
  O       37.307    -320.028      89.123
  C       35.360    -319.181      90.356
  N       34.129    -318.607      89.842
  C       33.380    -319.425      88.989
  O       33.787    -320.551      88.697
  N       32.207    -318.936      88.473
  C       31.829    -317.729      88.762
  N       30.661    -317.299      88.216
  C       32.603    -316.823      89.636
  C       33.732    -317.322      90.137
  O       37.243    -318.494      96.599
  O       39.318    -317.742      95.303
  H       36.669    -320.577      88.621
  H       37.820    -319.263      96.748
  H       32.251    -315.824      89.840
  H       34.366    -316.730      90.787
  H       35.226    -320.269      90.413
  H       36.328    -318.331      88.547
  H       37.088    -316.892      90.274
  H       37.578    -319.376      91.989
  H       30.158    -317.945      87.621
  H       38.398    -317.175      92.872
  H       30.277    -316.377      88.367
  H       36.779    -316.510      92.740
  P       39.412    -317.437      88.831
  C       39.709    -315.083      89.807
  O       39.027    -315.879      88.859
  O       38.393    -318.006      87.730
  O       40.830    -317.767      88.504
  H       38.709    -317.787      86.835
  H       39.516    -314.029      89.586
  H       40.786    -315.259      89.761
  H       39.335    -315.302      90.812
  H       35.895    -314.889      96.592
  H       35.876    -316.532      97.187
  H       35.375    -316.191      95.549

 3  4  5  6  7  8  9  10  11  12  13  21  23  27  28  29  30  32 0
 6-311+G(2d,p)
 ****
 34  35 0
 6-311+G(2d,p)
 ****
 1  2  14  15  16  17  18  19  20  22  24  25  26 0
 3-21G
 ****
 31  33  36  37  38  39  40  41  42  43  44  45  46 0
 3-21G
 ****


