%nproc=1
%NoSave
%Mem=1900MB
#P OB98/GEN NMR

erre ene a

0 1
  C      122.869     276.993    -833.520
  O      124.242     277.079    -833.198
  P      125.214     278.109    -833.950
  C      125.937     279.124    -831.700
  O      125.353     279.376    -832.969
  C      126.680     280.351    -831.176
  O      127.841     280.607    -832.011
  C      125.849     281.640    -831.135
  O      126.305     282.383    -830.002
  C      126.253     282.330    -832.427
  O      125.959     283.723    -832.417
  C      127.742     281.968    -832.488
  N      128.283     282.123    -833.835
  C      129.043     283.268    -834.077
  O      129.161     284.131    -833.202
  N      129.600     283.447    -835.318
  C      129.339     282.597    -836.267
  N      129.922     282.819    -837.475
  C      128.435     281.442    -836.087
  C      127.959     281.255    -834.853
  O      124.826     278.440    -835.351
  O      126.654     277.421    -833.830
  H      126.423     284.131    -831.659
  H      126.739     276.683    -834.486
  H      128.199     280.791    -836.916
  H      127.299     280.439    -834.623
  H      128.322     282.596    -831.805
  H      125.714     281.886    -833.270
  H      124.770     281.465    -831.075
  H      127.050     280.123    -830.168
  H      130.540     283.612    -837.547
  H      126.645     278.302    -831.806
  H      129.844     282.179    -838.250
  H      125.158     278.809    -830.987
  P      125.343     283.423    -829.244
  C      124.135     281.635    -827.875
  O      124.010     282.635    -828.873
  O      125.136     284.723    -829.957
  O      126.049     283.641    -827.818
  H      125.681     284.440    -827.396
  H      123.136     281.370    -827.509
  H      124.736     281.988    -827.036
  H      124.597     280.742    -828.307
  H      122.405     276.249    -832.906
  H      122.760     276.724    -834.550
  H      122.402     277.940    -833.347

 3  4  5  6  7  8  9  10  11  12  13  23  27  28  29  30  32 0
 6-311+G(2d,p)
 ****
 34  35 0
 6-311+G(2d,p)
 ****
 1  2  14  15  16  17  18  19  20  21  22  24  25  26 0
 3-21G
 ****
 31  33  36  37  38  39  40  41  42  43  44  45  46 0
 3-21G
 ****


