%nproc=1
%NoSave
%Mem=1900MB
#P OB98/GEN NMR

erre ene a

0 1
  C      113.576      -0.527     -17.874
  O      114.907      -0.005     -17.904
  P      115.242       1.000     -19.110
  C      113.502       2.848     -18.567
  O      114.877       2.485     -18.617
  C      113.275       4.003     -17.584
  O      113.527       3.572     -16.213
  C      114.176       5.223     -17.846
  O      113.402       6.386     -17.518
  C      115.293       5.014     -16.834
  O      116.067       6.181     -16.608
  C      114.479       4.506     -15.649
  N      116.651       5.164     -11.079
  C      115.920       5.988     -11.859
  N      115.377       5.737     -13.072
  C      115.652       4.480     -13.459
  C      116.387       3.523     -12.775
  C      116.902       3.906     -11.523
  N      117.666       3.079     -10.730
  N      116.470       2.350     -13.514
  C      115.859       2.635     -14.651
  N      115.281       3.872     -14.628
  O      114.115       0.669     -20.198
  O      116.622       0.843     -19.655
  H      116.544       6.102     -15.756
  H      114.471       0.081     -20.889
  H      115.750       6.983     -11.460
  H      115.806       1.983     -15.513
  H      113.908       5.306     -15.164
  H      115.972       4.234     -17.202
  H      114.520       5.300     -18.880
  H      112.219       4.302     -17.643
  H      112.900       1.991     -18.257
  H      117.995       3.446      -9.850
  H      117.884       2.140     -11.033
  H      113.165       3.112     -19.576
  P      112.940       7.364     -18.702
  C      110.505       6.567     -18.864
  O      111.371       7.604     -18.440
  O      112.899       6.337     -19.935
  O      113.790       8.569     -18.934
  H      112.396       5.534     -19.706
  H      109.487       6.815     -18.556
  H      110.796       5.617     -18.405
  H      110.534       6.480     -19.954
  H      113.468      -1.180     -17.033
  H      113.386      -1.071     -18.775
  H      112.878       0.280     -17.791

 3  4  5  6  7  8  9  10  11  12  22  25  29  30  31  32 0
 6-311+G(2d,p)
 ****
 33  36  37 0
 6-311+G(2d,p)
 ****
 1  2  13  14  15  16  17  18  19  20  21  23  24  26 0
 3-21G
 ****
 27  28  34  35  38  39  40  41  42  43  44  45  46  47  48 0
 3-21G
 ****


