%nproc=1
%NoSave
%Mem=1900MB
#P OB98/GEN NMR

erre ene a

0 1
  C      -27.606    -529.576     -99.290
  O      -27.386    -528.479    -100.157
  P      -26.899    -527.071     -99.570
  C      -28.949    -526.865     -98.035
  O      -28.188    -526.259     -99.075
  C      -29.843    -525.833     -97.354
  O      -29.049    -524.819     -96.695
  C      -30.744    -525.067     -98.310
  O      -31.813    -525.863     -98.786
  C      -31.156    -523.889     -97.439
  O      -32.221    -524.259     -96.551
  C      -29.863    -523.622     -96.644
  N      -29.134    -522.463     -97.143
  C      -29.854    -521.266     -97.210
  O      -31.054    -521.245     -96.939
  N      -29.193    -520.126     -97.597
  C      -27.964    -520.199     -97.998
  N      -27.343    -519.030     -98.309
  C      -27.219    -521.472     -98.092
  C      -27.851    -522.550     -97.632
  O      -25.974    -526.300    -100.453
  O      -26.174    -527.456     -98.194
  H      -25.297    -527.027     -98.169
  H      -32.948    -524.594     -97.112
  H      -26.219    -521.488     -98.498
  H      -27.375    -523.524     -97.643
  H      -30.092    -523.464     -95.585
  H      -31.511    -523.037     -98.030
  H      -30.154    -524.703     -99.161
  H      -30.443    -526.350     -96.593
  H      -27.879    -518.176     -98.212
  H      -28.259    -527.297     -97.302
  H      -26.331    -518.934     -98.314
  H      -29.551    -527.676     -98.457
  P      -32.059    -525.877    -100.372
  C      -33.163    -523.587    -100.867
  O      -33.347    -524.974    -100.666
  O      -32.565    -527.369    -100.655
  O      -30.853    -525.547    -101.189
  H      -32.219    -527.675    -101.513
  H      -34.039    -523.191    -101.384
  H      -32.274    -523.386    -101.469
  H      -33.070    -523.088     -99.898
  H      -27.925    -530.423     -99.861
  H      -28.362    -529.321     -98.577
  H      -26.697    -529.813     -98.777

 3  4  5  6  7  8  9  10  11  12  13  24  27  28  29  30  32 0
 6-311+G(2d,p)
 ****
 34  35 0
 6-311+G(2d,p)
 ****
 1  2  14  15  16  17  18  19  20  21  22  23  25  26 0
 3-21G
 ****
 31  33  36  37  38  39  40  41  42  43  44  45  46 0
 3-21G
 ****


