%nproc=1
%NoSave
%Mem=1900MB
#P OB98/GEN NMR

erre ene a

0 1
  C      193.166     126.774      11.364
  O      193.927     126.900      12.549
  H      192.129     126.556      11.637
  H      193.546     125.949      10.757
  H      193.188     127.702      10.787
  P      195.454     127.371      12.439
  C      195.515     128.227      14.871
  O      196.066     127.326      13.919
  C      196.101     127.943      16.253
  O      195.525     126.733      16.799
  C      197.606     127.718      16.249
  O      198.306     128.942      16.127
  C      197.792     127.008      17.580
  O      197.820     127.947      18.667
  C      196.527     126.124      17.645
  N      196.779     124.740      17.251
  C      197.163     123.867      18.266
  O      197.322     124.216      19.435
  N      197.388     122.569      17.884
  C      197.378     122.101      16.602
  O      197.675     120.947      16.303
  C      196.992     123.072      15.568
  C      196.714     124.325      15.935
  O      195.686     128.644      11.698
  O      196.178     126.135      11.717
  H      198.711     128.351      18.658
  H      196.359     126.365      10.787
  H      197.680     121.927      18.600
  H      196.959     122.733      14.542
  H      196.432     125.058      15.187
  H      196.118     126.122      18.664
  H      198.725     126.444      17.622
  H      197.883     127.032      15.442
  H      195.830     128.774      16.920
  H      194.428     128.090      14.900
  H      195.737     129.255      14.559
  P      199.814     128.950      15.591
  C      199.893     131.118      14.212
  O      200.268     130.478      15.429
  O      200.076     128.081      14.404
  O      200.666     128.453      16.852
  H      201.136     127.628      16.621
  H      200.248     132.128      14.216
  H      198.827     131.115      14.121
  H      200.323     130.592      13.385

 6  7  8  9  10  11  12  13  14  15  16  26  31  32  33  34  35 0
 6-311+G(2d,p)
 ****
 36  37 0
 6-311+G(2d,p)
 ****
 1  2  3  4  5  17  18  19  20  21  22  23  24  25 0
 3-21G
 ****
 27  28  29  30  38  39  40  41  42  43  44  45 0
 3-21G
 ****


