%nproc=1
%NoSave
%Mem=1900MB
#P OB98/GEN NMR

erre ene a

0 1
  C     -500.365    -421.473     -23.335
  O     -499.275    -422.370     -23.262
  H     -499.987    -420.485     -23.613
  H     -500.866    -421.399     -22.365
  H     -501.074    -421.807     -24.097
  P     -499.611    -423.873     -22.811
  C     -498.583    -424.921     -24.929
  O     -498.478    -424.764     -23.517
  C     -497.664    -423.928     -25.642
  O     -496.353    -423.977     -25.019
  C     -497.478    -424.230     -27.135
  O     -497.376    -422.997     -27.852
  C     -496.139    -424.945     -27.175
  O     -495.520    -424.861     -28.459
  C     -495.386    -424.230     -26.051
  N     -490.692    -425.893     -27.101
  C     -491.475    -424.967     -27.693
  N     -492.715    -424.568     -27.329
  C     -493.101    -425.190     -26.201
  C     -492.411    -426.151     -25.485
  C     -491.147    -426.513     -25.988
  N     -490.352    -427.479     -25.414
  N     -493.160    -426.583     -24.411
  C     -494.280    -425.883     -24.468
  N     -494.295    -425.044     -25.546
  O     -501.014    -424.319     -23.053
  O     -499.144    -423.871     -21.278
  H     -494.645    -425.303     -28.410
  H     -498.267    -423.459     -21.175
  H     -491.063    -424.493     -28.578
  H     -495.111    -425.960     -23.771
  H     -494.957    -423.272     -26.373
  H     -496.272    -426.006     -26.937
  H     -498.278    -424.835     -27.554
  H     -498.054    -422.914     -25.488
  H     -499.617    -424.764     -25.250
  H     -489.460    -427.672     -25.838
  H     -490.671    -427.948     -24.581
  H     -498.295    -425.950     -25.175
  P     -498.695    -422.118     -28.074
  C     -497.517    -419.827     -28.193
  O     -498.297    -420.790     -28.891
  O     -499.530    -421.884     -26.860
  O     -499.503    -422.964     -29.172
  H     -500.457    -422.967     -28.934
  H     -497.318    -418.995     -28.836
  H     -496.593    -420.271     -27.887
  H     -498.054    -419.490     -27.331

 6  7  8  9  10  11  12  13  14  15  25  28  32  33  34  35 0
 6-311+G(2d,p)
 ****
 36  39  40 0
 6-311+G(2d,p)
 ****
 1  2  3  4  5  16  17  18  19  20  21  22  23  24 0
 3-21G
 ****
 26  27  29  30  31  37  38  41  42  43  44  45  46  47 0
 3-21G
 ****
 48 0
 3-21G
 ****


