%nproc=1
%NoSave
%Mem=1900MB
#P OB98/GEN NMR

erre ene a

0 1
  C      534.453     -37.200      78.500
  O      533.855     -38.501      78.410
  P      533.431     -39.233      79.771
  C      530.955     -38.652      80.319
  O      531.862     -39.549      79.695
  C      529.606     -39.336      80.554
  O      528.802     -38.614      81.513
  C      528.750     -39.457      79.300
  O      529.120     -40.580      78.516
  C      527.369     -39.675      79.906
  O      527.228     -41.056      80.299
  C      527.410     -38.767      81.138
  N      523.234     -35.952      81.633
  C      523.477     -37.259      82.011
  N      522.456     -37.910      82.618
  N      524.614     -37.874      81.812
  C      525.542     -37.093      81.214
  C      525.425     -35.788      80.794
  C      524.154     -35.127      81.003
  O      523.879     -33.975      80.676
  N      526.584     -35.339      80.221
  C      527.417     -36.361      80.314
  N      526.825     -37.458      80.894
  O      533.500     -38.046      80.849
  O      534.310     -40.376      80.154
  H      527.328     -41.590      79.487
  H      533.694     -38.414      81.732
  H      522.334     -35.531      81.807
  H      528.445     -36.356      79.978
  H      526.882     -39.201      81.994
  H      526.568     -39.462      79.195
  H      521.575     -37.486      82.845
  H      528.764     -38.521      78.720
  H      522.630     -38.859      82.927
  H      529.800     -40.345      80.953
  H      530.815     -37.763      79.696
  H      531.395     -38.297      81.255
  P      529.154     -40.403      76.921
  C      531.679     -40.496      76.323
  O      530.450     -41.192      76.413
  O      529.539     -38.857      76.744
  O      527.877     -40.734      76.230
  H      529.133     -38.503      75.932
  H      532.474     -41.219      76.122
  H      531.900     -39.980      77.261
  H      531.643     -39.773      75.502
  H      534.680     -36.843      77.517
  H      535.354     -37.261      79.074
  H      533.771     -36.526      78.976

 3  4  5  6  7  8  9  10  11  12  23  26  30  31 0
 6-311+G(2d,p)
 ****
 33  35  36  37  38 0
 6-311+G(2d,p)
 ****
 1  2  13  14  15  16  17  18  19  20  21  22  24  25 0
 3-21G
 ****
 27  28  29  32  34  39  40  41  42  43  44  45  46  47  48  49 0
 3-21G
 ****


