%nproc=1
%NoSave
%Mem=1900MB
#P OB98/GEN NMR

erre ene a

0 1
  C     -312.259    -136.866    -178.989
  O     -312.926    -136.448    -177.814
  H     -311.319    -137.345    -178.705
  H     -312.041    -136.007    -179.629
  H     -312.876    -137.588    -179.531
  P     -314.322    -135.682    -178.014
  C     -313.735    -134.020    -176.135
  O     -314.630    -135.035    -176.576
  C     -313.995    -133.681    -174.665
  O     -315.425    -133.546    -174.469
  C     -313.491    -134.752    -173.694
  O     -312.960    -134.120    -172.530
  C     -314.750    -135.520    -173.327
  O     -314.646    -136.159    -172.057
  C     -315.814    -134.426    -173.401
  N     -320.665    -134.455    -171.823
  C     -319.600    -133.708    -171.458
  N     -318.343    -133.756    -171.944
  C     -318.250    -134.659    -172.937
  C     -319.245    -135.495    -173.412
  C     -320.504    -135.372    -172.805
  N     -321.587    -136.149    -173.151
  N     -318.750    -136.315    -174.407
  C     -317.480    -135.971    -174.539
  N     -317.129    -134.985    -173.657
  O     -315.429    -136.495    -178.600
  O     -313.875    -134.412    -178.877
  H     -313.850    -136.729    -172.065
  H     -313.052    -134.018    -178.531
  H     -319.783    -132.982    -170.668
  H     -316.779    -136.413    -175.240
  H     -315.881    -133.845    -172.473
  H     -314.937    -136.296    -174.079
  H     -312.736    -135.399    -174.141
  H     -313.549    -132.706    -174.446
  H     -313.855    -133.119    -176.745
  H     -322.461    -135.987    -172.672
  H     -321.494    -136.826    -173.895
  H     -312.713    -134.395    -176.260
  P     -311.375    -134.135    -172.312
  C     -311.096    -134.456    -169.762
  O     -311.052    -133.538    -170.854
  O     -310.551    -133.582    -173.426
  O     -311.072    -135.703    -172.106
  H     -310.219    -135.915    -172.531
  H     -310.865    -133.941    -168.853
  H     -310.381    -135.235    -169.922
  H     -312.076    -134.880    -169.692

 6  7  8  9  10  11  12  13  14  15  25  28  32  33  34  35 0
 6-311+G(2d,p)
 ****
 36  39  40 0
 6-311+G(2d,p)
 ****
 1  2  3  4  5  16  17  18  19  20  21  22  23  24 0
 3-21G
 ****
 26  27  29  30  31  37  38  41  42  43  44  45  46  47 0
 3-21G
 ****
 48 0
 3-21G
 ****


