%nproc=1
%NoSave
%Mem=1900MB
#P OB98/GEN NMR

erre ene a

0 1
  C     -207.882      33.760     215.105
  O     -207.793      34.705     216.153
  H     -207.394      34.174     214.218
  H     -208.926      33.548     214.862
  H     -207.369      32.834     215.384
  P     -208.536      34.381     217.535
  C     -210.801      35.098     218.558
  O     -210.049      34.887     217.372
  C     -212.308      35.034     218.268
  O     -212.692      36.222     217.521
  C     -212.725      33.812     217.432
  O     -214.067      33.476     217.808
  C     -212.693      34.386     216.028
  O     -213.354      33.549     215.111
  C     -213.288      35.775     216.283
  N     -213.036      36.700     215.189
  C     -214.065      36.850     214.255
  O     -215.108      36.207     214.374
  N     -213.874      37.697     213.194
  C     -212.732      38.290     213.041
  N     -212.605      39.106     211.959
  C     -211.598      38.116     213.972
  C     -211.818      37.317     215.016
  O     -207.846      34.858     218.770
  O     -208.686      32.786     217.529
  H     -214.322      33.721     215.117
  H     -208.039      32.393     218.143
  H     -210.660      38.618     213.789
  H     -211.046      37.126     215.754
  H     -214.372      35.710     216.443
  H     -211.659      34.479     215.676
  H     -212.067      32.953     217.572
  H     -212.850      35.067     219.219
  H     -213.403      39.188     211.340
  H     -210.539      36.087     218.944
  H     -211.757      39.604     211.727
  H     -210.540      34.346     219.310
  P     -214.468      32.045     218.413
  C     -215.242      29.730     217.575
  O     -214.804      31.038     217.213
  O     -215.527      32.108     219.469
  O     -213.108      31.456     219.025
  H     -213.323      30.887     219.788
  H     -215.432      29.160     216.690
  H     -216.140      29.802     218.153
  H     -214.483      29.247     218.154

 6  7  8  9  10  11  12  13  14  15  16  26  30  31  32  33  35 0
 6-311+G(2d,p)
 ****
 37  38 0
 6-311+G(2d,p)
 ****
 1  2  3  4  5  17  18  19  20  21  22  23  24  25 0
 3-21G
 ****
 27  28  29  34  36  39  40  41  42  43  44  45  46 0
 3-21G
 ****


