%nproc=1
%NoSave
%Mem=1900MB
#P OB98/GEN NMR

erre ene a

0 1
  C     -171.027    -170.828     111.725
  O     -171.905    -171.645     112.475
  H     -171.460    -170.674     110.733
  H     -170.062    -171.328     111.609
  H     -170.892    -169.856     112.205
  P     -171.582    -171.916     114.021
  C     -169.985    -173.921     113.713
  O     -170.110    -172.557     114.097
  C     -168.937    -174.633     114.577
  O     -167.619    -174.154     114.196
  C     -169.108    -174.387     116.079
  O     -168.784    -175.581     116.788
  C     -168.082    -173.312     116.381
  O     -167.653    -173.339     117.742
  C     -166.975    -173.646     115.385
  N     -163.184    -170.712     116.991
  C     -163.693    -171.882     117.522
  N     -163.120    -172.329     118.663
  N     -164.681    -172.554     116.985
  C     -165.140    -172.000     115.833
  C     -164.721    -170.850     115.207
  C     -163.643    -170.107     115.829
  O     -163.159    -169.054     115.410
  N     -165.449    -170.608     114.069
  C     -166.308    -171.611     114.012
  N     -166.168    -172.479     115.064
  O     -172.633    -172.685     114.762
  O     -171.375    -170.459     114.644
  H     -167.431    -174.271     117.952
  H     -172.143    -170.195     115.181
  H     -162.431    -170.231     117.450
  H     -167.048    -171.755     113.234
  H     -166.289    -174.412     115.762
  H     -168.511    -172.321     116.178
  H     -162.343    -171.875     119.113
  H     -170.123    -174.075     116.334
  H     -163.457    -173.200     119.055
  H     -168.966    -175.703     114.348
  H     -169.678    -173.954     112.660
  H     -170.956    -174.416     113.814
  P     -169.961    -176.435     117.466
  C     -169.233    -176.411     119.933
  O     -170.166    -175.924     118.976
  O     -169.854    -177.915     117.312
  O     -171.275    -175.874     116.727
  H     -171.917    -176.605     116.623
  H     -169.466    -176.007     120.896
  H     -168.245    -176.113     119.651
  H     -169.286    -177.479     119.972

 6  7  8  9  10  11  12  13  14  15  26  29  33  34 0
 6-311+G(2d,p)
 ****
 36  38  39  40  41 0
 6-311+G(2d,p)
 ****
 1  2  3  4  5  16  17  18  19  20  21  22  23  24  25 0
 3-21G
 ****
 27  28  30  31  32  35  37  42  43  44  45  46  47 0
 3-21G
 ****
 48  49 0
 3-21G
 ****


