%nproc=1
%NoSave
%Mem=1900MB
#P OB98/GEN NMR

erre ene a

0 1
  C      -49.336     -37.396     224.036
  O      -50.106     -37.742     225.172
  P      -49.998     -39.196     225.832
  C      -48.352     -40.359     227.412
  O      -48.510     -39.374     226.402
  C      -46.965     -41.000     227.355
  O      -46.869     -41.836     226.169
  C      -45.807     -39.994     227.316
  O      -44.743     -40.539     228.107
  C      -45.423     -39.970     225.850
  O      -44.093     -39.509     225.645
  C      -45.677     -41.430     225.464
  N      -45.826     -41.608     224.026
  C      -44.713     -41.309     223.234
  O      -43.717     -40.797     223.738
  N      -44.773     -41.592     221.892
  C      -45.906     -41.954     221.363
  N      -45.905     -42.285     220.042
  C      -47.163     -42.032     222.132
  C      -47.044     -41.893     223.454
  O      -50.471     -40.320     224.969
  O      -50.884     -39.090     227.167
  H      -51.540     -39.815     227.170
  H      -43.480     -40.068     226.168
  H      -48.100     -42.217     221.628
  H      -47.908     -41.964     224.109
  H      -44.858     -42.073     225.815
  H      -46.102     -39.305     225.302
  H      -46.084     -39.014     227.714
  H      -46.858     -41.664     228.226
  H      -45.017     -42.261     219.559
  H      -49.109     -41.133     227.261
  H      -46.633     -42.870     219.633
  H      -48.529     -39.914     228.400
  P      -43.848     -39.529     228.983
  C      -44.137     -38.362     231.283
  O      -44.765     -38.972     230.173
  O      -43.749     -38.255     228.010
  O      -42.475     -39.997     229.345
  H      -42.943     -37.752     228.223
  H      -44.902     -38.104     232.018
  H      -43.626     -37.445     230.974
  H      -43.420     -39.046     231.745
  H      -49.552     -36.387     223.752
  H      -49.578     -38.054     223.227
  H      -48.296     -37.485     224.270

 3  4  5  6  7  8  9  10  11  12  13  24  27  28  29  30  32 0
 6-311+G(2d,p)
 ****
 34  35 0
 6-311+G(2d,p)
 ****
 1  2  14  15  16  17  18  19  20  21  22  23  25  26 0
 3-21G
 ****
 31  33  36  37  38  39  40  41  42  43  44  45  46 0
 3-21G
 ****


