%nproc=1
%NoSave
%Mem=1900MB
#P OB98/GEN NMR

erre ene a

0 1
  C      223.984    -400.320     193.606
  O      224.050    -399.270     194.552
  H      224.790    -400.219     192.875
  H      224.101    -401.271     194.131
  H      223.015    -400.313     193.097
  P      223.866    -397.780     193.982
  C      221.891    -396.481     192.912
  O      222.428    -397.745     193.272
  C      220.853    -396.648     191.808
  O      221.441    -397.302     190.666
  C      219.643    -397.495     192.190
  O      218.698    -396.755     192.947
  C      219.100    -397.848     190.815
  O      218.354    -396.736     190.284
  C      220.389    -398.052     190.003
  N      220.143    -402.294     187.154
  C      219.695    -401.039     186.944
  N      219.814    -399.958     187.738
  C      220.502    -400.264     188.852
  C      221.039    -401.493     189.198
  C      220.835    -402.546     188.294
  N      221.241    -403.848     188.556
  N      221.661    -401.424     190.432
  C      221.482    -400.183     190.828
  N      220.792    -399.443     189.905
  O      224.899    -397.742     192.757
  O      224.132    -396.688     194.964
  H      218.841    -395.928     190.532
  H      225.732    -397.326     193.052
  H      219.161    -400.883     186.009
  H      221.825    -399.777     191.769
  H      220.303    -397.656     188.985
  H      218.428    -398.713     190.828
  H      219.944    -398.414     192.703
  H      220.539    -395.645     191.487
  H      222.697    -395.831     192.555
  H      220.660    -404.551     188.108
  H      221.505    -404.017     189.517
  H      221.436    -396.029     193.799
  P      217.713    -397.574     193.912
  C      218.120    -399.276     195.819
  O      218.592    -398.733     194.591
  O      216.776    -398.363     192.877
  O      216.899    -396.743     194.847
  H      215.840    -398.150     193.053
  H      218.796    -400.033     196.158
  H      217.151    -399.704     195.671
  H      218.058    -398.499     196.552

 6  7  8  9  10  11  12  13  14  15  25  28  32  33  34  35 0
 6-311+G(2d,p)
 ****
 36  39  40 0
 6-311+G(2d,p)
 ****
 1  2  3  4  5  16  17  18  19  20  21  22  23  24 0
 3-21G
 ****
 26  27  29  30  31  37  38  41  42  43  44  45  46  47  48 0
 3-21G
 ****


