%nproc=1
%NoSave
%Mem=1900MB
#P OB98/GEN NMR

erre ene a

0 1
  C      -51.856     101.605     328.073
  O      -50.747     102.448     328.384
  P      -49.365     102.201     327.610
  C      -47.910     102.759     329.749
  O      -48.173     102.945     328.376
  C      -46.992     103.894     330.241
  O      -45.784     103.946     329.449
  C      -47.638     105.276     330.156
  O      -48.408     105.573     331.311
  C      -46.434     106.177     329.981
  O      -45.772     106.383     331.244
  C      -45.557     105.324     329.042
  N      -45.789     105.431     327.580
  C      -45.312     106.533     326.883
  O      -44.692     107.464     327.392
  N      -45.556     106.545     325.533
  C      -46.064     105.509     324.796
  O      -46.205     105.553     323.581
  C      -46.412     104.311     325.564
  C      -46.276     104.332     326.888
  O      -49.527     103.036     326.259
  O      -49.051     100.759     327.343
  H      -44.887     106.741     331.047
  H      -49.530     102.437     325.488
  H      -45.280     107.370     325.022
  H      -46.774     103.450     325.014
  H      -46.532     103.438     327.462
  H      -44.487     105.537     329.205
  H      -46.726     107.166     329.630
  H      -48.248     105.352     329.250
  H      -46.707     103.681     331.283
  H      -47.432     101.795     329.932
  H      -48.849     102.768     330.311
  P      -49.819     106.315     331.157
  C      -49.501     107.599     333.358
  O      -50.286     106.657     332.661
  O      -50.833     105.626     330.307
  O      -49.428     107.762     330.575
  H      -49.514     107.779     329.600
  H      -50.008     107.859     334.291
  H      -49.361     108.504     332.763
  H      -48.526     107.161     333.599
  H      -52.699     101.891     328.667
  H      -51.601     100.587     328.283
  H      -52.100     101.704     327.036

 3  4  5  6  7  8  9  10  11  12  13  23  28  29  30  31  32 0
 6-311+G(2d,p)
 ****
 33  34 0
 6-311+G(2d,p)
 ****
 1  2  14  15  16  17  18  19  20  21  22  24  25  26  27 0
 3-21G
 ****
 35  36  37  38  39  40  41  42  43  44  45 0
 3-21G
 ****


