%nproc=1
%NoSave
%Mem=1900MB
#P OB98/GEN NMR

erre ene a

0 1
  C      543.613    -864.093      75.038
  O      543.551    -864.492      76.394
  H      543.755    -864.988      74.419
  H      544.456    -863.420      74.879
  H      542.682    -863.608      74.730
  P      543.157    -863.396      77.497
  C      541.263    -864.855      78.477
  O      542.498    -864.198      78.722
  C      540.774    -865.594      79.739
  O      541.438    -866.895      79.796
  C      541.103    -864.860      81.056
  O      540.078    -865.213      81.995
  C      542.430    -865.517      81.430
  O      542.835    -865.225      82.749
  C      542.093    -866.968      81.081
  N      543.240    -867.878      81.023
  C      543.269    -868.946      81.912
  O      542.396    -869.181      82.761
  N      544.363    -869.759      81.828
  C      545.400    -869.632      80.943
  O      546.342    -870.419      80.896
  C      545.323    -868.488      80.038
  C      544.260    -867.680      80.105
  O      542.371    -862.235      77.008
  O      544.575    -862.951      78.101
  H      544.830    -862.079      77.721
  H      543.735    -865.596      82.888
  H      544.402    -870.548      82.460
  H      546.126    -868.344      79.335
  H      544.157    -866.828      79.438
  H      541.367    -867.370      81.784
  H      543.220    -865.129      80.783
  H      541.148    -863.780      80.951
  H      539.709    -865.780      79.648
  H      541.411    -865.581      77.666
  H      540.516    -864.122      78.170
  P      539.633    -864.264      83.216
  C      538.401    -862.429      81.852
  O      538.280    -863.509      82.802
  O      540.712    -863.353      83.698
  O      539.165    -865.279      84.380
  H      539.277    -864.828      85.246
  H      537.434    -862.012      81.661
  H      538.815    -862.802      80.939
  H      539.043    -861.673      82.252

 6  7  8  9  10  11  12  13  14  15  16  27  31  32  33  34  35 0
 6-311+G(2d,p)
 ****
 36  37 0
 6-311+G(2d,p)
 ****
 1  2  3  4  5  17  18  19  20  21  22  23  24  25 0
 3-21G
 ****
 26  28  29  30  38  39  40  41  42  43  44  45 0
 3-21G
 ****


