%nproc=1
%NoSave
%Mem=1900MB
#P OB98/GEN NMR

erre ene a

0 1
  C      701.662    -526.712    -108.754
  O      702.885    -527.274    -109.184
  H      701.840    -525.668    -108.468
  H      701.275    -527.252    -107.889
  H      700.932    -526.735    -109.568
  P      702.849    -528.819    -109.613
  C      702.346    -530.055    -111.821
  O      702.433    -528.793    -111.162
  C      701.870    -529.875    -113.260
  O      700.610    -529.155    -113.253
  C      702.854    -529.076    -114.128
  O      702.879    -529.625    -115.443
  C      702.238    -527.688    -114.175
  O      702.631    -526.962    -115.335
  C      700.748    -528.006    -114.100
  N      699.527    -523.097    -114.837
  C      700.189    -523.998    -115.599
  N      700.451    -525.290    -115.343
  C      699.922    -525.654    -114.162
  C      699.225    -524.860    -113.266
  C      699.034    -523.512    -113.646
  N      698.385    -522.590    -112.854
  N      698.875    -525.586    -112.147
  C      699.334    -526.796    -112.364
  N      699.987    -526.887    -113.562
  O      702.031    -529.717    -108.745
  O      704.414    -529.178    -109.681
  H      702.088    -526.140    -115.392
  H      704.914    -528.470    -110.124
  H      700.556    -523.617    -116.553
  H      699.242    -527.635    -111.690
  H      700.321    -528.234    -115.086
  H      702.557    -527.115    -113.294
  H      703.859    -529.058    -113.714
  H      701.673    -530.858    -113.698
  H      701.643    -530.706    -111.291
  H      698.276    -521.650    -113.201
  H      697.983    -522.885    -111.965
  H      703.336    -530.520    -111.796
  P      704.069    -530.636    -115.831
  C      704.398    -532.964    -114.764
  O      703.560    -532.137    -115.572
  O      705.404    -530.313    -115.263
  O      704.083    -530.551    -117.424
  H      705.005    -530.598    -117.734
  H      703.955    -533.933    -114.665
  H      704.509    -532.522    -113.796
  H      705.359    -533.057    -115.225

 6  7  8  9  10  11  12  13  14  15  25  28  32  33  34  35 0
 6-311+G(2d,p)
 ****
 36  39  40 0
 6-311+G(2d,p)
 ****
 1  2  3  4  5  16  17  18  19  20  21  22  23  24 0
 3-21G
 ****
 26  27  29  30  31  37  38  41  42  43  44  45  46  47 0
 3-21G
 ****
 48 0
 3-21G
 ****


