%nproc=1
%NoSave
%Mem=1900MB
#P OB98/GEN NMR

erre ene a

0 1
  C       10.923    -523.068    -133.997
  O       10.597    -521.945    -134.819
  P       11.657    -521.482    -135.928
  C        9.989    -521.525    -137.986
  O       10.887    -520.815    -137.164
  C        8.907    -520.556    -138.504
  O        8.002    -520.211    -137.437
  C        9.478    -519.256    -139.050
  O        9.842    -519.374    -140.432
  C        8.336    -518.279    -138.817
  O        7.299    -518.463    -139.809
  C        7.841    -518.747    -137.427
  N        8.502    -518.207    -136.226
  C        8.083    -516.990    -135.694
  O        7.172    -516.303    -136.158
  N        8.743    -516.564    -134.556
  C        9.635    -517.291    -133.828
  O       10.152    -516.885    -132.800
  C        9.924    -518.633    -134.349
  C        9.373    -519.017    -135.502
  O       12.210    -522.849    -136.520
  O       12.754    -520.602    -135.397
  H        7.013    -519.384    -139.738
  H       13.162    -522.944    -136.321
  H        8.497    -515.655    -134.209
  H       10.594    -519.259    -133.777
  H        9.586    -520.011    -135.893
  H        6.759    -518.544    -137.316
  H        8.666    -517.250    -138.895
  H       10.334    -518.929    -138.463
  H        8.315    -521.066    -139.283
  H        9.524    -522.349    -137.447
  H       10.539    -521.961    -138.828
  P       11.113    -518.585    -140.994
  C       12.702    -520.595    -141.090
  O       11.944    -519.658    -141.835
  O       11.883    -517.798    -139.990
  O       10.499    -517.644    -142.141
  H       10.311    -516.740    -141.797
  H       13.082    -521.355    -141.760
  H       12.070    -521.069    -140.322
  H       13.538    -520.082    -140.601
  H       10.123    -523.252    -133.311
  H       11.820    -522.862    -133.451
  H       11.071    -523.930    -134.613

 3  4  5  6  7  8  9  10  11  12  13  23  28  29  30  31  32 0
 6-311+G(2d,p)
 ****
 33  34 0
 6-311+G(2d,p)
 ****
 1  2  14  15  16  17  18  19  20  21  22  24  25  26  27 0
 3-21G
 ****
 35  36  37  38  39  40  41  42  43  44  45 0
 3-21G
 ****


