%nproc=1
%NoSave
%Mem=1900MB
#P OB98/GEN NMR

erre ene a

0 1
  C       20.146     331.349      37.344
  O       19.611     330.039      37.213
  P       19.762     329.313      35.795
  C       19.077     329.873      33.340
  O       18.987     330.210      34.713
  C       17.750     330.187      32.643
  O       16.708     329.321      33.135
  C       17.260     331.607      32.878
  O       17.939     332.536      32.056
  C       15.775     331.478      32.550
  O       15.551     331.580      31.132
  C       15.460     330.052      33.049
  N       14.744     330.052      34.323
  C       13.364     330.236      34.247
  O       12.771     330.413      33.176
  N       12.693     330.247      35.434
  C       13.257     330.154      36.681
  O       12.607     330.228      37.717
  C       14.724     329.992      36.697
  C       15.387     329.954      35.547
  O       18.845     328.008      35.934
  O       21.164     328.971      35.416
  H       14.687     331.157      30.957
  H       19.249     327.266      35.443
  H       11.691     330.354      35.402
  H       15.201     329.910      37.669
  H       16.462     329.845      35.537
  H       14.848     329.517      32.310
  H       15.177     332.262      33.027
  H       17.366     331.869      33.944
  H       17.871     329.998      31.561
  H       19.305     328.808      33.244
  H       19.895     330.444      32.883
  P       18.673     333.768      32.801
  C       17.745     335.663      34.344
  O       17.483     334.680      33.356
  O       19.262     334.562      31.540
  O       19.692     333.321      33.796
  H       18.693     334.487      30.755
  H       18.729     336.120      34.199
  H       17.694     335.204      35.335
  H       16.981     336.438      34.276
  H       19.974     331.707      38.338
  H       19.669     332.001      36.642
  H       21.198     331.326      37.151

 3  4  5  6  7  8  9  10  11  12  13  23  28  29  30  31  32 0
 6-311+G(2d,p)
 ****
 33  34 0
 6-311+G(2d,p)
 ****
 1  2  14  15  16  17  18  19  20  21  22  24  25  26 0
 3-21G
 ****
 27  35  36  37  38  39  40  41  42  43  44  45 0
 3-21G
 ****


