%nproc=1
%NoSave
%Mem=1900MB
#P OB98/GEN NMR

erre ene a

0 1
  C      288.922     388.299     374.344
  O      289.683     387.100     374.219
  P      291.258     386.990     374.447
  C      291.047     385.096     376.251
  O      291.588     385.530     375.001
  C      290.853     383.572     376.326
  O      289.649     383.200     375.610
  C      292.014     382.854     375.633
  O      293.229     382.622     376.328
  C      291.386     381.591     375.040
  O      291.512     380.462     375.903
  C      289.918     381.981     374.874
  N      286.958     380.403     371.013
  C      287.065     379.884     372.290
  N      286.336     378.787     372.566
  N      287.842     380.405     373.206
  C      288.579     381.455     372.778
  C      288.575     382.034     371.528
  C      287.670     381.494     370.529
  O      287.526     381.908     369.391
  N      289.475     383.063     371.447
  C      290.051     383.083     372.631
  N      289.528     382.130     373.477
  O      291.883     388.148     375.148
  O      291.841     386.963     372.943
  H      291.131     380.701     376.768
  H      292.717     387.413     372.971
  H      286.331     379.981     370.350
  H      290.837     383.770     372.935
  H      289.255     381.216     375.295
  H      291.885     381.319     374.099
  H      285.814     378.277     371.871
  H      292.307     383.470     374.768
  H      286.581     378.291     373.423
  H      290.704     383.252     377.359
  H      290.082     385.608     376.369
  H      291.682     385.430     377.070
  P      294.635     382.238     375.672
  C      295.956     384.277     376.476
  O      295.796     382.877     376.571
  O      294.705     383.130     374.340
  O      294.814     380.784     375.354
  H      295.392     382.788     373.732
  H      296.932     384.558     376.875
  H      295.178     384.776     377.063
  H      295.889     384.614     375.439
  H      287.893     388.091     374.138
  H      289.286     389.026     373.648
  H      289.016     388.679     375.340

 3  4  5  6  7  8  9  10  11  12  23  26  30  31 0
 6-311+G(2d,p)
 ****
 33  35  36  37  38 0
 6-311+G(2d,p)
 ****
 1  2  13  14  15  16  17  18  19  20  21  22  24  25 0
 3-21G
 ****
 27  28  29  32  34  39  40  41  42  43  44  45  46  47  48  49 0
 3-21G
 ****


