%nproc=1
%NoSave
%Mem=1900MB
#P OB98/GEN NMR

erre ene a

0 1
  C       99.235     -46.094    -172.307
  O       98.000     -45.584    -171.848
  H       99.050     -46.732    -173.177
  H       99.704     -46.698    -171.526
  H       99.909     -45.285    -172.606
  P       98.004     -44.410    -170.754
  C       97.156     -45.903    -168.828
  O       98.227     -45.114    -169.328
  C       96.641     -45.338    -167.500
  O       97.688     -45.494    -166.492
  C       96.279     -43.837    -167.556
  O       95.198     -43.626    -166.637
  C       97.562     -43.209    -167.043
  O       97.383     -41.861    -166.696
  C       97.902     -44.187    -165.917
  N       99.264     -44.046    -165.411
  C       99.440     -43.298    -164.250
  O       98.519     -42.775    -163.625
  N      100.736     -43.155    -163.828
  C      101.842     -43.670    -164.439
  O      102.979     -43.529    -164.001
  C      101.594     -44.427    -165.678
  C      100.336     -44.579    -166.100
  O       96.857     -43.460    -170.818
  O       99.401     -43.667    -171.005
  H       99.255     -42.875    -171.558
  H       98.251     -41.415    -166.591
  H      100.882     -42.615    -162.987
  H      102.452     -44.831    -166.198
  H      100.113     -45.129    -167.010
  H       97.197     -44.083    -165.086
  H       98.332     -43.233    -167.821
  H       95.982     -43.507    -168.554
  H       95.786     -45.939    -167.167
  H       97.524     -46.924    -168.679
  H       96.345     -45.920    -169.566
  P       93.651     -43.718    -167.060
  C       92.889     -41.761    -165.563
  O       92.965     -42.277    -166.884
  O       92.907     -44.817    -166.369
  O       93.655     -43.953    -168.645
  H       92.913     -44.543    -168.883
  H       92.414     -40.802    -165.581
  H       93.876     -41.663    -165.161
  H       92.320     -42.429    -164.951

 6  7  8  9  10  11  12  13  14  15  16  27  31  32  33  34  35 0
 6-311+G(2d,p)
 ****
 36  37 0
 6-311+G(2d,p)
 ****
 1  2  3  4  5  17  18  19  20  21  22  23  24  25 0
 3-21G
 ****
 26  28  29  30  38  39  40  41  42  43  44  45 0
 3-21G
 ****


