%nproc=1
%NoSave
%Mem=1900MB
#P OB98/GEN NMR

erre ene a

0 1
  C      741.075     326.277     -52.557
  O      740.039     325.326     -52.787
  P      739.185     325.341     -54.142
  C      737.128     326.439     -53.058
  O      738.188     326.587     -53.990
  C      736.288     327.722     -52.995
  O      737.133     328.784     -52.486
  C      735.768     328.235     -54.342
  O      734.555     327.631     -54.762
  C      735.513     329.697     -53.994
  O      734.275     329.819     -53.265
  C      736.701     330.032     -53.089
  N      738.918     334.446     -54.443
  C      737.830     334.173     -53.680
  N      737.288     332.969     -53.385
  C      738.024     331.977     -53.924
  C      739.149     332.094     -54.712
  C      739.604     333.413     -54.975
  N      740.727     333.681     -55.735
  N      739.611     330.854     -55.108
  C      738.776     330.001     -54.540
  N      737.805     330.628     -53.813
  O      738.544     324.037     -54.481
  O      740.221     325.831     -55.259
  H      734.172     329.004     -52.743
  H      739.876     325.623     -56.144
  H      737.310     335.028     -53.265
  H      738.845     328.931     -54.636
  H      736.428     330.705     -52.271
  H      735.417     330.332     -54.892
  H      736.537     328.180     -55.117
  H      735.474     327.567     -52.281
  H      737.566     326.246     -52.069
  H      741.039     334.641     -55.750
  H      741.326     332.912     -55.988
  H      736.506     325.583     -53.333
  P      734.333     327.464     -56.351
  C      733.225     329.793     -56.839
  O      734.355     328.955     -56.950
  O      733.148     326.655     -56.729
  O      735.722     326.848     -56.839
  H      736.499     327.436     -56.760
  H      733.500     330.806     -57.153
  H      732.871     329.835     -55.804
  H      732.427     329.421     -57.499
  H      741.519     326.096     -51.600
  H      740.664     327.265     -52.579
  H      741.820     326.184     -53.319

 3  4  5  6  7  8  9  10  11  12  22  25  29  30  31  32 0
 6-311+G(2d,p)
 ****
 33  36  37 0
 6-311+G(2d,p)
 ****
 1  2  13  14  15  16  17  18  19  20  21  23  24  26 0
 3-21G
 ****
 27  28  34  35  38  39  40  41  42  43  44  45  46  47  48 0
 3-21G
 ****


