%nproc=1
%NoSave
%Mem=1900MB
#P OB98/GEN NMR

erre ene a

0 1
  C       32.364     -71.530     -68.267
  O       31.345     -72.511     -68.330
  P       31.453     -73.838     -67.440
  C       32.374     -75.320     -69.371
  O       32.593     -74.752     -68.098
  C       32.734     -76.812     -69.381
  O       34.179     -76.920     -69.350
  C       32.230     -77.601     -68.177
  O       32.257     -78.993     -68.504
  C       33.292     -77.301     -67.143
  O       33.306     -78.259     -66.089
  C       34.584     -77.235     -67.997
  N       35.518     -76.214     -67.490
  C       36.707     -76.043     -68.195
  O       36.958     -76.643     -69.238
  N       37.633     -75.220     -67.613
  C       37.496     -74.612     -66.400
  O       38.431     -74.143     -65.761
  C       36.142     -74.637     -65.827
  C       35.233     -75.447     -66.375
  O       30.095     -74.610     -67.789
  O       31.597     -73.602     -65.975
  H       32.605     -77.991     -65.450
  H       29.420     -74.425     -67.111
  H       38.547     -75.210     -68.051
  H       35.951     -74.043     -64.943
  H       34.238     -75.526     -65.943
  H       35.108     -78.199     -68.003
  H       33.090     -76.319     -66.695
  H       31.232     -77.310     -67.835
  H       32.381     -77.264     -70.316
  H       32.963     -74.776     -70.115
  H       31.323     -75.205     -69.663
  P       31.075     -79.918     -67.937
  C       32.651     -81.067     -66.266
  O       31.479     -80.295     -66.432
  O       30.673     -81.066     -68.802
  O       29.871     -78.879     -67.731
  H       29.025     -79.361     -67.678
  H       33.097     -80.829     -65.297
  H       33.382     -80.859     -67.053
  H       32.389     -82.129     -66.285
  H       32.122     -70.722     -68.925
  H       33.296     -71.964     -68.563
  H       32.444     -71.163     -67.265

 3  4  5  6  7  8  9  10  11  12  13  23  28  29  30  31  32 0
 6-311+G(2d,p)
 ****
 33  34 0
 6-311+G(2d,p)
 ****
 1  2  14  15  16  17  18  19  20  21  22  24  25  26  27 0
 3-21G
 ****
 35  36  37  38  39  40  41  42  43  44  45 0
 3-21G
 ****


