%nproc=1
%NoSave
%Mem=1900MB
#P OB98/GEN NMR

erre ene a

0 1
  C      272.559     400.137     386.595
  O      272.931     401.220     387.421
  H      273.352     399.965     385.865
  H      271.637     400.375     386.057
  H      272.420     399.227     387.184
  P      272.025     401.567     388.694
  C      272.095     404.148     388.579
  O      272.536     402.982     389.256
  C      273.172     405.245     388.630
  O      274.336     404.787     387.872
  C      272.734     406.586     388.010
  O      273.444     407.621     388.706
  C      273.239     406.427     386.587
  O      273.210     407.630     385.862
  C      274.612     405.798     386.881
  N      275.288     405.219     385.727
  C      276.313     405.954     385.144
  O      276.692     407.061     385.533
  N      276.923     405.375     384.061
  C      276.615     404.157     383.524
  O      277.217     403.673     382.568
  C      275.520     403.427     384.181
  C      274.921     403.980     385.241
  O      271.901     400.488     389.720
  O      270.602     401.939     388.058
  H      269.992     401.182     388.157
  H      273.651     407.492     384.997
  H      277.671     405.893     383.620
  H      275.246     402.460     383.777
  H      274.115     403.460     385.749
  H      275.264     406.538     387.349
  H      272.598     405.730     386.040
  H      271.655     406.768     388.090
  H      273.498     405.372     389.667
  H      271.182     404.503     389.069
  H      271.869     403.897     387.537
  P      272.816     409.063     389.035
  C      274.706     410.582     388.132
  O      274.028     410.095     389.279
  O      271.811     409.045     390.142
  O      272.155     409.562     387.666
  H      271.428     410.182     387.858
  H      275.482     411.253     388.435
  H      274.013     411.099     387.501
  H      275.134     409.761     387.595

 6  7  8  9  10  11  12  13  14  15  16  27  31  32  33  34  35 0
 6-311+G(2d,p)
 ****
 36  37 0
 6-311+G(2d,p)
 ****
 1  2  3  4  5  17  18  19  20  21  22  23  24  25 0
 3-21G
 ****
 26  28  29  30  38  39  40  41  42  43  44  45 0
 3-21G
 ****


