%nproc=1
%NoSave
%Mem=1900MB
#P OB98/GEN NMR

erre ene a

0 1
  C     -380.613      -7.042     148.042
  O     -381.480      -6.112     148.699
  P     -380.884      -4.658     149.032
  C     -381.357      -3.328     146.828
  O     -381.749      -3.619     148.158
  C     -382.580      -3.202     145.912
  O     -383.286      -4.480     145.854
  C     -383.589      -2.133     146.351
  O     -384.106      -1.534     145.149
  C     -384.672      -2.945     147.042
  O     -385.912      -2.252     147.085
  C     -384.666      -4.213     146.179
  N     -385.292      -5.350     146.848
  C     -386.651      -5.546     146.622
  O     -387.339      -4.767     145.962
  N     -387.205      -6.645     147.219
  C     -386.566      -7.503     148.073
  O     -387.110      -8.472     148.580
  C     -385.159      -7.178     148.366
  C     -384.600      -6.134     147.750
  O     -379.469      -4.718     148.294
  O     -380.828      -4.373     150.496
  H     -379.491      -5.206     147.451
  H     -385.840      -1.511     147.726
  H     -388.183      -6.823     147.046
  H     -384.638      -7.801     149.081
  H     -383.573      -5.856     147.958
  H     -385.195      -4.033     145.235
  H     -384.366      -3.174     148.070
  H     -383.146      -1.362     146.986
  H     -382.224      -2.984     144.897
  H     -380.715      -4.131     146.444
  H     -380.758      -2.408     146.816
  P     -383.256      -0.349     144.467
  C     -381.262      -0.985     142.888
  O     -382.657      -0.928     143.098
  O     -381.977      -0.329     145.439
  O     -383.949       0.972     144.398
  H     -381.616      -1.213     145.611
  H     -381.062      -1.619     142.021
  H     -380.751      -1.411     143.755
  H     -380.874       0.019     142.692
  H     -381.134      -7.963     147.882
  H     -379.753      -7.220     148.653
  H     -380.305      -6.638     147.100

 3  4  5  6  7  8  9  10  11  12  13  24  28  29  30  31  32 0
 6-311+G(2d,p)
 ****
 33  34 0
 6-311+G(2d,p)
 ****
 1  2  14  15  16  17  18  19  20  21  22  23  25  26  27 0
 3-21G
 ****
 35  36  37  38  39  40  41  42  43  44  45 0
 3-21G
 ****


