%nproc=1
%NoSave
%Mem=1900MB
#P OB98/GEN NMR

erre ene a

0 1
  C      -23.840    -117.483      74.216
  O      -25.118    -117.751      73.667
  P      -26.397    -117.087      74.366
  C      -27.166    -118.974      75.975
  O      -26.534    -117.709      75.840
  C      -28.324    -118.901      76.973
  O      -27.809    -118.573      78.291
  C      -29.372    -117.841      76.618
  O      -30.669    -118.301      77.028
  C      -29.006    -116.670      77.507
  O      -30.123    -115.810      77.728
  C      -28.511    -117.402      78.754
  N      -27.948    -115.287      83.309
  C      -28.812    -116.286      82.907
  N      -29.704    -116.716      83.827
  N      -28.799    -116.820      81.715
  C      -27.857    -116.285      80.899
  C      -26.935    -115.303      81.187
  C      -26.969    -114.714      82.508
  O      -26.252    -113.807      82.918
  N      -26.120    -115.051      80.115
  C      -26.571    -115.843      79.164
  N      -27.647    -116.584      79.580
  O      -27.621    -117.741      73.567
  O      -26.445    -115.599      74.292
  H      -30.913    -116.381      77.787
  H      -28.004    -117.086      72.954
  H      -28.005    -114.900      84.237
  H      -26.177    -115.900      78.158
  H      -29.347    -117.743      79.378
  H      -28.208    -116.081      77.042
  H      -29.809    -116.300      84.740
  H      -29.402    -117.568      75.558
  H      -30.377    -117.416      83.543
  H      -28.786    -119.892      77.046
  H      -26.436    -119.702      76.331
  H      -27.533    -119.307      74.998
  P      -31.785    -118.376      75.875
  C      -32.567    -115.935      76.325
  O      -32.031    -116.866      75.406
  O      -33.117    -118.750      76.676
  O      -31.478    -119.354      74.790
  H      -33.749    -119.206      76.088
  H      -31.829    -115.146      76.500
  H      -32.825    -116.397      77.282
  H      -33.468    -115.490      75.895
  H      -23.092    -117.993      73.645
  H      -23.809    -117.824      75.230
  H      -23.654    -116.430      74.188

 3  4  5  6  7  8  9  10  11  12  23  26  30  31 0
 6-311+G(2d,p)
 ****
 33  35  36  37  38 0
 6-311+G(2d,p)
 ****
 1  2  13  14  15  16  17  18  19  20  21  22  24  25 0
 3-21G
 ****
 27  28  29  32  34  39  40  41  42  43  44  45  46  47  48  49 0
 3-21G
 ****


