%nproc=1
%NoSave
%Mem=1900MB
#P OB98/GEN NMR

erre ene a

0 1
  C       86.283    -176.441    -145.631
  O       85.789    -177.159    -144.517
  H       87.110    -177.005    -146.072
  H       86.653    -175.462    -145.314
  H       85.498    -176.320    -146.382
  P       84.578    -176.480    -143.711
  C       85.392    -175.301    -141.550
  O       85.202    -175.209    -142.954
  C       86.675    -176.063    -141.235
  O       87.731    -175.686    -142.146
  C       87.214    -175.836    -139.828
  O       86.554    -176.665    -138.885
  C       88.680    -176.202    -140.007
  O       88.877    -177.630    -139.968
  C       88.979    -175.647    -141.407
  N       92.860    -172.771    -139.934
  C       92.668    -174.132    -139.825
  N       93.634    -174.823    -139.179
  N       91.624    -174.760    -140.295
  C       90.728    -173.936    -140.887
  C       90.811    -172.574    -141.073
  C       91.988    -171.898    -140.574
  O       92.248    -170.705    -140.697
  N       89.710    -172.097    -141.735
  C       88.947    -173.158    -141.914
  N       89.513    -174.295    -141.402
  O       84.296    -177.514    -142.520
  O       83.346    -176.215    -144.509
  H       88.296    -178.051    -140.624
  H       83.350    -177.481    -142.285
  H       93.695    -172.349    -139.568
  H       87.984    -173.153    -142.405
  H       89.700    -176.269    -141.951
  H       89.301    -175.781    -139.215
  H       94.262    -174.373    -138.527
  H       87.135    -174.778    -139.548
  H       93.490    -175.820    -139.074
  H       86.473    -177.130    -141.400
  H       84.542    -175.832    -141.110
  H       85.441    -174.292    -141.126
  P       86.404    -176.115    -137.384
  C       87.951    -177.047    -135.512
  O       87.846    -176.273    -136.699
  O       85.530    -177.247    -136.663
  O       85.780    -174.767    -137.274
  H       85.151    -176.896    -135.835
  H       88.969    -177.056    -135.181
  H       87.631    -178.049    -135.710
  H       87.332    -176.619    -134.751

 6  7  8  9  10  11  12  13  14  15  26  29  33  34 0
 6-311+G(2d,p)
 ****
 36  38  39  40  41 0
 6-311+G(2d,p)
 ****
 1  2  3  4  5  16  17  18  19  20  21  22  23  24  25 0
 3-21G
 ****
 27  28  30  31  32  35  37  42  43  44  45  46  47 0
 3-21G
 ****
 48  49 0
 3-21G
 ****


