%nproc=1
%NoSave
%Mem=1900MB
#P OB98/GEN NMR

erre ene a

0 1
  C      -93.080     -53.867      64.510
  O      -94.465     -53.732      64.273
  P      -95.336     -52.519      64.840
  C      -95.519     -53.705      67.146
  O      -95.200     -52.510      66.442
  C      -95.272     -53.595      68.658
  O      -93.945     -53.084      68.892
  C      -96.242     -52.583      69.276
  O      -97.552     -52.977      69.633
  C      -95.449     -51.908      70.389
  O      -95.729     -52.462      71.676
  C      -93.993     -52.168      69.997
  N      -91.483     -48.108      71.703
  C      -91.839     -49.258      72.381
  N      -91.668     -49.231      73.720
  N      -92.337     -50.317      71.796
  C      -92.538     -50.156      70.467
  C      -92.213     -49.071      69.685
  C      -91.627     -47.924      70.337
  O      -91.375     -46.854      69.786
  N      -92.631     -49.232      68.390
  C      -93.245     -50.397      68.393
  N      -93.250     -50.976      69.640
  O      -96.690     -52.324      64.236
  O      -94.431     -51.252      64.415
  H      -95.569     -53.423      71.630
  H      -95.038     -50.516      64.206
  H      -91.178     -47.293      72.220
  H      -93.730     -50.847      67.534
  H      -93.451     -52.646      70.822
  H      -95.702     -50.842      70.452
  H      -91.427     -48.386      74.217
  H      -96.398     -51.797      68.527
  H      -92.074     -49.985      74.264
  H      -95.302     -54.580      69.133
  H      -94.917     -54.510      66.714
  H      -96.567     -53.961      66.972
  P      -98.879     -52.095      69.498
  C      -99.263     -51.584      71.975
  O      -98.916     -51.049      70.710
  O     -100.065     -53.106      69.863
  O      -99.103     -51.497      68.146
  H     -100.903     -52.783      69.480
  H      -99.551     -50.768      72.640
  H      -98.397     -52.101      72.403
  H     -100.097     -52.286      71.890
  H      -92.721     -54.754      64.031
  H      -92.903     -53.934      65.563
  H      -92.566     -53.015      64.116

 3  4  5  6  7  8  9  10  11  12  23  26  30  31 0
 6-311+G(2d,p)
 ****
 33  35  36  37  38 0
 6-311+G(2d,p)
 ****
 1  2  13  14  15  16  17  18  19  20  21  22  24  25 0
 3-21G
 ****
 27  28  29  32  34  39  40  41  42  43  44  45  46  47  48  49 0
 3-21G
 ****


