%nproc=1
%NoSave
%Mem=1900MB
#P OB98/GEN NMR

erre ene a

0 1
  C     1190.282    -158.721     175.350
  O     1189.478    -158.221     176.401
  H     1189.961    -158.254     174.414
  H     1190.159    -159.801     175.271
  H     1191.338    -158.481     175.519
  P     1189.920    -158.613     177.891
  C     1187.854    -159.655     179.073
  O     1188.605    -158.478     178.813
  C     1186.436    -159.289     179.526
  O     1186.487    -158.546     180.771
  C     1185.665    -158.408     178.540
  O     1185.071    -159.183     177.509
  C     1184.616    -157.820     179.459
  O     1183.599    -158.784     179.714
  C     1185.425    -157.535     180.739
  N     1184.525    -152.609     181.479
  C     1183.657    -153.685     181.470
  N     1182.344    -153.400     181.685
  N     1184.003    -154.924     181.249
  C     1185.343    -155.056     181.060
  C     1186.311    -154.073     181.040
  C     1185.898    -152.711     181.269
  O     1186.612    -151.724     181.315
  N     1187.562    -154.599     180.809
  C     1187.350    -155.888     180.656
  N     1186.020    -156.215     180.804
  O     1190.827    -157.370     178.357
  O     1190.668    -159.905     178.017
  H     1183.332    -159.153     178.843
  H     1191.555    -157.704     178.927
  H     1184.184    -151.670     181.619
  H     1188.110    -156.624     180.454
  H     1184.838    -157.674     181.650
  H     1184.130    -156.937     179.033
  H     1181.993    -152.469     181.802
  H     1186.302    -157.604     178.135
  H     1181.687    -154.182     181.724
  H     1185.901    -160.225     179.720
  H     1188.347    -160.232     179.863
  H     1187.804    -160.254     178.158
  P     1184.728    -158.441     176.118
  C     1182.461    -159.712     175.925
  O     1183.736    -159.412     175.337
  O     1186.106    -158.555     175.305
  O     1184.278    -157.015     176.260
  H     1186.152    -157.862     174.619
  H     1181.918    -160.372     175.281
  H     1181.907    -158.806     176.056
  H     1182.608    -160.181     176.875

 6  7  8  9  10  11  12  13  14  15  26  29  33  34 0
 6-311+G(2d,p)
 ****
 36  38  39  40  41 0
 6-311+G(2d,p)
 ****
 1  2  3  4  5  16  17  18  19  20  21  22  23  24  25 0
 3-21G
 ****
 27  28  30  31  32  35  37  42  43  44  45  46  47 0
 3-21G
 ****
 48  49 0
 3-21G
 ****


