%nproc=1
%NoSave
%Mem=1900MB
#P OB98/GEN NMR

erre ene a

0 1
  C      111.439      31.349    -127.258
  O      110.988      30.243    -126.504
  P      111.643      29.804    -125.116
  C      114.110      29.506    -124.356
  O      113.157      29.337    -125.399
  C      115.530      29.095    -124.769
  O      115.903      29.795    -125.973
  C      116.537      29.517    -123.693
  O      116.752      28.700    -122.561
  C      117.798      29.896    -124.459
  O      118.764      28.843    -124.483
  C      117.282      30.180    -125.875
  N      120.226      33.667    -128.084
  C      120.331      32.289    -128.122
  N      121.469      31.797    -128.660
  N      119.415      31.482    -127.656
  C      118.379      32.122    -127.062
  C      118.161      33.478    -126.975
  C      119.161      34.360    -127.531
  O      119.147      35.585    -127.441
  N      117.042      33.768    -126.237
  C      116.602      32.592    -125.844
  N      117.405      31.564    -126.285
  O      110.796      28.972    -124.206
  O      111.857      31.235    -124.399
  H      119.562      29.179    -124.934
  H      111.726      31.105    -123.440
  H      121.003      34.241    -128.388
  H      115.736      32.427    -125.213
  H      117.829      29.578    -126.611
  H      118.291      30.757    -123.993
  H      122.253      32.387    -128.894
  H      116.170      30.461    -123.273
  H      121.652      30.806    -128.551
  H      115.573      28.032    -125.020
  H      113.770      28.915    -123.500
  H      114.120      30.554    -124.035
  P      117.494      29.128    -121.208
  C      119.813      30.069    -120.686
  O      119.069      29.171    -121.491
  O      117.338      27.851    -120.253
  O      116.939      30.344    -120.545
  H      117.438      28.125    -119.321
  H      120.787      30.242    -121.152
  H      119.967      29.631    -119.695
  H      119.293      31.027    -120.583
  H      110.847      31.442    -128.144
  H      112.464      31.203    -127.528
  H      111.348      32.240    -126.673

 3  4  5  6  7  8  9  10  11  12  23  26  30  31 0
 6-311+G(2d,p)
 ****
 33  35  36  37  38 0
 6-311+G(2d,p)
 ****
 1  2  13  14  15  16  17  18  19  20  21  22  24  25 0
 3-21G
 ****
 27  28  29  32  34  39  40  41  42  43  44  45  46  47  48  49 0
 3-21G
 ****


