%nproc=1
%NoSave
%Mem=1900MB
#P OB98/GEN NMR

erre ene a

0 1
  C      615.944     488.138     327.019
  O      615.397     487.490     328.143
  P      614.561     486.137     328.014
  C      612.223     485.481     327.128
  O      613.226     486.489     327.179
  C      611.022     485.986     326.300
  O      610.431     487.134     326.977
  C      611.414     486.421     324.871
  O      610.628     485.797     323.844
  C      611.316     487.929     324.947
  O      611.153     488.566     323.694
  C      610.178     488.119     325.964
  N      610.122     489.480     326.512
  C      609.877     490.517     325.604
  O      609.673     490.357     324.416
  N      609.903     491.777     326.129
  C      610.270     492.116     327.407
  O      610.372     493.276     327.779
  C      610.573     490.983     328.297
  C      610.466     489.725     327.820
  O      614.300     485.405     329.283
  O      615.407     485.297     326.936
  H      611.042     489.524     323.842
  H      615.517     485.727     326.075
  H      609.719     492.545     325.497
  H      610.879     491.221     329.311
  H      610.688     488.880     328.464
  H      609.208     487.895     325.526
  H      612.251     488.312     325.378
  H      612.444     486.126     324.647
  H      610.282     485.167     326.287
  H      611.890     485.254     328.144
  H      612.635     484.566     326.701
  P      611.238     484.949     322.623
  C      610.605     484.924     320.079
  O      610.845     485.681     321.246
  O      610.949     483.494     322.655
  O      612.820     485.220     322.720
  H      613.309     484.467     322.371
  H      610.854     485.530     319.202
  H      609.541     484.652     320.061
  H      611.212     484.005     320.085
  H      616.461     489.021     327.333
  H      615.158     488.406     326.344
  H      616.629     487.480     326.526

 3  4  5  6  7  8  9  10  11  12  13  23  28  29  30  31  32 0
 6-311+G(2d,p)
 ****
 33  34 0
 6-311+G(2d,p)
 ****
 1  2  14  15  16  17  18  19  20  21  22  24  25  26  27 0
 3-21G
 ****
 35  36  37  38  39  40  41  42  43  44  45 0
 3-21G
 ****


