%nproc=1
%NoSave
%Mem=1900MB
#P OB98/GEN NMR

erre ene a

0 1
  C     -168.013      23.796    -159.519
  O     -169.125      24.210    -158.747
  P     -168.901      24.840    -157.291
  C     -169.989      22.961    -155.855
  O     -168.807      23.618    -156.260
  C     -170.195      23.072    -154.339
  O     -171.595      22.824    -154.061
  C     -169.419      22.051    -153.512
  O     -169.361      22.511    -152.160
  C     -170.317      20.837    -153.597
  O     -170.056      19.899    -152.554
  C     -171.735      21.463    -153.584
  N     -172.668      20.711    -154.445
  C     -173.521      19.814    -153.809
  O     -173.575      19.687    -152.587
  N     -174.254      19.001    -154.634
  C     -174.171      18.976    -155.996
  O     -174.587      18.056    -156.690
  C     -173.439      20.099    -156.605
  C     -172.709      20.891    -155.816
  O     -170.323      25.503    -156.972
  O     -167.792      25.833    -157.201
  H     -170.266      20.355    -151.704
  H     -170.310      26.455    -157.188
  H     -174.763      18.253    -154.174
  H     -173.473      20.203    -157.682
  H     -172.117      21.695    -156.245
  H     -172.154      21.487    -152.570
  H     -170.140      20.324    -154.551
  H     -168.412      21.841    -153.886
  H     -169.961      24.091    -154.013
  H     -169.943      21.911    -156.165
  H     -170.859      23.395    -156.366
  P     -167.914      22.809    -151.529
  C     -167.367      20.475    -150.607
  O     -167.097      21.430    -151.614
  O     -167.906      23.482    -150.198
  O     -167.208      23.705    -152.655
  H     -166.453      24.187    -152.267
  H     -167.195      19.475    -151.016
  H     -168.401      20.540    -150.256
  H     -166.688      20.637    -149.765
  H     -168.354      23.404    -160.454
  H     -167.474      23.038    -158.990
  H     -167.370      24.633    -159.696

 3  4  5  6  7  8  9  10  11  12  13  23  28  29  30  31  32 0
 6-311+G(2d,p)
 ****
 33  34 0
 6-311+G(2d,p)
 ****
 1  2  14  15  16  17  18  19  20  21  22  24  25  26  27 0
 3-21G
 ****
 35  36  37  38  39  40  41  42  43  44  45 0
 3-21G
 ****


