%nproc=1
%NoSave
%Mem=1900MB
#P OB98/GEN NMR

erre ene a

0 1
  C       67.861     206.201      62.850
  O       67.562     207.511      63.291
  H       68.478     206.267      61.951
  H       66.943     205.660      62.606
  H       68.420     205.659      63.618
  P       66.629     207.690      64.579
  C       68.212     207.447      66.604
  O       67.291     206.799      65.737
  C       67.953     207.039      68.052
  O       66.590     207.322      68.418
  C       68.175     205.555      68.335
  O       69.552     205.282      68.527
  C       67.364     205.391      69.609
  O       68.101     205.931      70.724
  C       66.135     206.272      69.316
  N       61.279     204.894      69.827
  C       62.131     205.486      70.738
  N       61.627     205.716      71.970
  N       63.369     205.812      70.470
  C       63.758     205.459      69.224
  C       63.012     204.854      68.239
  C       61.624     204.559      68.526
  O       60.827     204.056      67.738
  N       63.774     204.567      67.135
  C       64.966     205.047      67.433
  N       65.012     205.592      68.695
  O       65.168     207.429      64.373
  O       66.910     209.187      65.066
  H       67.580     205.748      71.527
  H       66.274     209.811      64.670
  H       60.337     204.658      70.092
  H       65.826     205.031      66.775
  H       65.751     206.757      70.221
  H       67.145     204.348      69.843
  H       60.738     205.354      72.279
  H       67.736     204.927      67.552
  H       62.255     206.095      72.667
  H       68.593     207.659      68.694
  H       68.076     208.526      66.482
  H       69.240     207.192      66.330
  P       70.208     203.894      68.053
  C       72.169     204.738      66.593
  O       70.858     204.201      66.620
  O       69.287     202.724      68.082
  O       71.501     203.733      68.976
  H       71.301     203.315      69.850
  H       72.471     204.891      65.578
  H       72.844     204.056      67.067
  H       72.182     205.673      67.114

 6  7  8  9  10  11  12  13  14  15  26  29  33  34 0
 6-311+G(2d,p)
 ****
 36  38  39  40  41 0
 6-311+G(2d,p)
 ****
 1  2  3  4  5  16  17  18  19  20  21  22  23  24  25 0
 3-21G
 ****
 27  28  30  31  32  35  37  42  43  44  45  46  47 0
 3-21G
 ****
 48  49 0
 3-21G
 ****


