%nproc=1
%NoSave
%Mem=1900MB
#P OB98/GEN NMR

erre ene a

0 1
  C      183.194    -230.572    -170.131
  O      183.891    -230.740    -168.903
  P      185.418    -230.253    -168.824
  C      186.241    -232.631    -169.444
  O      186.276    -231.245    -169.750
  C      187.652    -233.200    -169.303
  O      188.402    -232.907    -170.511
  C      188.453    -232.637    -168.123
  O      189.310    -233.685    -167.648
  C      189.302    -231.560    -168.770
  O      190.445    -231.226    -167.987
  C      189.609    -232.222    -170.111
  N      193.553    -230.106    -172.597
  C      193.495    -231.074    -171.653
  N      192.407    -231.583    -171.037
  C      191.288    -230.991    -171.488
  C      191.190    -229.971    -172.421
  C      192.392    -229.522    -172.995
  N      192.451    -228.551    -173.964
  N      189.871    -229.606    -172.604
  C      189.184    -230.390    -171.795
  N      189.998    -231.260    -171.122
  O      185.841    -230.667    -167.336
  O      185.634    -228.795    -169.064
  H      190.144    -230.979    -167.094
  H      185.976    -229.864    -166.793
  H      194.454    -231.497    -171.356
  H      188.111    -230.369    -171.664
  H      190.411    -232.968    -170.030
  H      188.706    -230.647    -168.906
  H      187.834    -232.252    -167.305
  H      187.576    -234.295    -169.227
  H      185.730    -233.156    -170.253
  H      193.330    -228.379    -174.418
  H      191.586    -228.245    -174.398
  H      185.676    -232.787    -168.518
  P      189.472    -233.827    -166.061
  C      191.769    -232.616    -166.078
  O      190.441    -232.642    -165.589
  O      190.373    -235.141    -165.897
  O      188.180    -233.944    -165.318
  H      190.188    -235.571    -165.039
  H      192.088    -231.579    -166.189
  H      191.855    -233.124    -167.045
  H      192.422    -233.120    -165.354
  H      182.195    -230.941    -170.028
  H      183.697    -231.115    -170.904
  H      183.166    -229.533    -170.386

 3  4  5  6  7  8  9  10  11  12  22  25  29  30  31  32 0
 6-311+G(2d,p)
 ****
 33  36  37 0
 6-311+G(2d,p)
 ****
 1  2  13  14  15  16  17  18  19  20  21  23  24  26 0
 3-21G
 ****
 27  28  34  35  38  39  40  41  42  43  44  45  46  47  48 0
 3-21G
 ****


