%nproc=1
%NoSave
%Mem=1900MB
#P OB98/GEN NMR

erre ene a

0 1
  C     -896.070    -362.330       5.626
  O     -895.050    -363.286       5.288
  P     -894.740    -363.741       3.788
  C     -895.630    -366.163       3.846
  O     -895.800    -364.851       3.329
  C     -895.860    -367.244       2.790
  O     -894.760    -367.237       1.816
  C     -895.960    -368.679       3.343
  O     -896.980    -369.342       2.562
  C     -894.570    -369.242       3.066
  O     -894.520    -370.663       3.076
  C     -894.320    -368.606       1.678
  N     -892.950    -368.675       1.226
  C     -892.620    -369.702       0.309
  O     -893.430    -370.552      -0.032
  N     -891.330    -369.764      -0.181
  C     -890.460    -368.876       0.200
  N     -889.200    -368.977      -0.341
  C     -890.750    -367.784       1.163
  C     -892.010    -367.744       1.607
  O     -893.320    -364.174       3.562
  O     -895.090    -362.470       2.874
  H     -894.470    -362.430       2.128
  H     -893.640    -370.935       2.780
  H     -889.990    -367.070       1.436
  H     -892.310    -366.975       2.298
  H     -894.990    -369.089       0.941
  H     -893.890    -368.864       3.816
  H     -896.250    -368.715       4.402
  H     -896.760    -366.980       2.222
  H     -889.030    -369.724      -1.004
  H     -896.360    -366.313       4.664
  H     -888.430    -368.333      -0.124
  H     -894.630    -366.249       4.277
  P     -898.380    -369.689       3.227
  C     -898.210    -372.073       4.303
  O     -898.120    -370.672       4.481
  O     -899.030    -370.704       2.161
  O     -899.310    -368.536       3.454
  H     -900.000    -370.677       2.230
  H     -897.360    -372.537       4.786
  H     -898.200    -372.352       3.223
  H     -899.120    -372.437       4.756
  H     -896.089    -362.188       6.686
  H     -897.022    -362.693       5.298
  H     -895.858    -361.398       5.145

 3  4  5  6  7  8  9  10  11  12  13  24  27  28  29  30  32 0
 6-311+G(2d,p)
 ****
 34  35 0
 6-311+G(2d,p)
 ****
 1  2  14  15  16  17  18  19  20  21  22  23  25  26 0
 3-21G
 ****
 31  33  36  37  38  39  40  41  42  43  44  45  46 0
 3-21G
 ****


