%nproc=1
%NoSave
%Mem=1900MB
#P OB98/GEN NMR

erre ene a

0 1
  C      228.808    -103.527    -787.795
  O      229.264    -104.247    -788.922
  H      229.111    -102.476    -787.873
  H      227.717    -103.582    -787.763
  H      229.216    -103.973    -786.881
  P      230.836    -104.201    -789.209
  C      231.429    -106.248    -787.728
  O      231.381    -105.704    -789.042
  C      230.926    -107.688    -787.735
  O      229.487    -107.711    -787.856
  C      231.439    -108.540    -788.887
  O      232.762    -109.000    -788.654
  C      230.440    -109.683    -788.858
  O      230.798    -110.622    -787.828
  C      229.126    -108.969    -788.485
  N      226.458    -111.031    -792.351
  C      227.220    -111.589    -791.388
  N      227.909    -110.984    -790.406
  C      227.738    -109.644    -790.449
  C      226.995    -108.942    -791.379
  C      226.338    -109.684    -792.373
  N      225.568    -109.107    -793.364
  N      227.044    -107.589    -791.113
  C      227.817    -107.474    -790.048
  N      228.265    -108.700    -789.616
  O      231.434    -103.443    -787.929
  O      231.241    -103.507    -790.475
  H      231.638    -111.030    -788.105
  H      232.180    -102.883    -788.203
  H      227.279    -112.676    -791.399
  H      228.058    -106.544    -789.552
  H      228.560    -109.547    -787.741
  H      230.391    -110.234    -789.795
  H      231.359    -108.003    -789.840
  H      231.187    -108.132    -786.763
  H      230.789    -105.646    -787.064
  H      224.974    -109.686    -793.915
  H      225.475    -108.091    -793.360
  H      232.457    -106.203    -787.359
  P      233.734    -109.152    -789.927
  C      234.698    -106.736    -789.797
  O      234.952    -108.135    -789.680
  O      232.902    -108.440    -791.096
  O      234.099    -110.551    -790.275
  H      233.162    -108.800    -791.970
  H      235.600    -106.193    -789.606
  H      233.951    -106.449    -789.087
  H      234.353    -106.518    -790.786

 6  7  8  9  10  11  12  13  14  15  25  28  32  33  34  35 0
 6-311+G(2d,p)
 ****
 36  39  40 0
 6-311+G(2d,p)
 ****
 1  2  3  4  5  16  17  18  19  20  21  22  23  24 0
 3-21G
 ****
 26  27  29  30  31  37  38  41  42  43  44  45  46  47  48 0
 3-21G
 ****


