%nproc=1
%NoSave
%Mem=1900MB
#P OB98/GEN NMR

erre ene a

0 1
  C      -39.042      78.099     -60.249
  O      -38.539      78.712     -59.069
  P      -37.314      79.740     -59.229
  C      -35.807      78.149     -57.835
  O      -35.986      78.857     -59.056
  C      -35.309      76.732     -58.105
  O      -36.123      76.101     -59.113
  C      -33.880      76.652     -58.621
  O      -32.925      76.732     -57.577
  C      -33.875      75.264     -59.240
  O      -33.724      74.271     -58.208
  C      -35.278      75.179     -59.852
  N      -34.319      73.483     -64.579
  C      -34.114      72.929     -63.366
  N      -34.386      73.449     -62.151
  C      -34.888      74.691     -62.266
  C      -35.114      75.399     -63.436
  C      -34.819      74.742     -64.640
  N      -35.052      75.299     -65.878
  N      -35.633      76.645     -63.154
  C      -35.730      76.684     -61.842
  N      -35.300      75.524     -61.261
  O      -37.374      80.586     -57.871
  O      -37.375      80.610     -60.437
  H      -34.406      74.456     -57.534
  H      -36.940      81.451     -57.997
  H      -33.686      71.930     -63.370
  H      -36.110      77.524     -61.275
  H      -35.719      74.183     -59.748
  H      -33.055      75.116     -59.948
  H      -33.697      77.402     -59.403
  H      -35.415      76.155     -57.177
  H      -36.765      78.096     -57.309
  H      -34.987      74.699     -66.684
  H      -35.606      76.147     -65.919
  H      -35.093      78.692     -57.208
  P      -31.826      77.898     -57.690
  C      -30.212      75.887     -58.018
  O      -30.553      77.212     -58.381
  O      -31.373      78.116     -56.171
  O      -32.328      79.152     -58.321
  H      -31.032      79.021     -56.044
  H      -29.544      75.476     -58.781
  H      -31.101      75.253     -57.957
  H      -29.691      75.887     -57.058
  H      -39.849      77.444     -59.995
  H      -38.262      77.537     -60.719
  H      -39.393      78.854     -60.921

 3  4  5  6  7  8  9  10  11  12  22  25  29  30  31  32 0
 6-311+G(2d,p)
 ****
 33  36  37 0
 6-311+G(2d,p)
 ****
 1  2  13  14  15  16  17  18  19  20  21  23  24  26 0
 3-21G
 ****
 27  28  34  35  38  39  40  41  42  43  44  45  46  47  48 0
 3-21G
 ****


