%nproc=1
%NoSave
%Mem=1900MB
#P OB98/GEN NMR

erre ene a

0 1
  C        6.615    -389.723     276.597
  O        7.731    -389.858     277.458
  H        6.186    -390.713     276.424
  H        6.933    -389.304     275.638
  H        5.851    -389.080     277.055
  P        8.398    -388.490     277.986
  C       10.801    -389.000     277.058
  O        9.628    -388.203     276.999
  C       12.052    -388.118     276.969
  O       13.208    -388.975     276.793
  C       12.019    -387.131     275.817
  O       12.648    -385.915     276.242
  C       12.878    -387.797     274.744
  O       13.421    -386.845     273.823
  C       13.904    -388.546     275.605
  N       14.488    -389.690     274.887
  C       15.350    -389.386     273.827
  O       15.567    -388.215     273.516
  N       15.908    -390.418     273.116
  C       15.583    -391.643     273.385
  N       16.148    -392.627     272.632
  C       14.632    -392.003     274.466
  C       14.138    -390.987     275.171
  O        9.097    -388.976     279.342
  O        7.431    -387.365     278.157
  H       14.063    -386.288     274.315
  H        9.534    -389.845     279.267
  H       14.369    -393.040     274.641
  H       13.439    -391.162     275.984
  H       14.715    -387.879     275.908
  H       12.263    -388.498     274.171
  H       11.021    -386.910     275.445
  H       12.188    -387.610     277.934
  H       16.778    -392.334     271.892
  H       10.811    -389.726     276.240
  H       15.927    -393.601     272.726
  H       10.789    -389.549     278.008
  P       11.741    -384.599     276.454
  C       11.487    -383.742     274.033
  O       10.848    -384.364     275.141
  O       12.464    -383.393     276.956
  O       10.651    -385.088     277.528
  H       10.485    -384.356     278.148
  H       10.789    -383.644     273.228
  H       12.315    -384.341     273.716
  H       11.838    -382.773     274.321

 6  7  8  9  10  11  12  13  14  15  16  26  30  31  32  33  35 0
 6-311+G(2d,p)
 ****
 37  38 0
 6-311+G(2d,p)
 ****
 1  2  3  4  5  17  18  19  20  21  22  23  24  25 0
 3-21G
 ****
 27  28  29  34  36  39  40  41  42  43  44  45  46 0
 3-21G
 ****


