%nproc=1
%NoSave
%Mem=1900MB
#P OB98/GEN NMR

erre ene a

0 1
  C      117.206     -10.570    -217.390
  O      118.587     -10.834    -217.538
  H      116.777     -10.256    -218.345
  H      116.705     -11.485    -217.063
  H      117.049      -9.792    -216.636
  P      119.505      -9.621    -218.047
  C      119.854      -8.778    -215.611
  O      119.371      -8.489    -216.915
  C      121.201      -8.090    -215.410
  O      121.052      -6.657    -215.536
  C      121.810      -8.323    -214.032
  O      122.490      -9.562    -213.940
  C      122.777      -7.155    -213.949
  O      123.943      -7.432    -214.743
  C      121.953      -6.026    -214.587
  N      122.151      -2.538    -210.843
  C      123.106      -3.050    -211.651
  N      122.968      -3.959    -212.637
  C      121.686      -4.336    -212.761
  C      120.603      -3.897    -212.016
  C      120.873      -2.956    -211.008
  N      119.910      -2.456    -210.163
  N      119.445      -4.530    -212.423
  C      119.822      -5.319    -213.408
  N      121.172      -5.262    -213.628
  O      118.676      -9.004    -219.271
  O      120.909      -9.970    -218.409
  H      123.631      -7.812    -215.587
  H      119.241      -8.405    -219.796
  H      124.113      -2.683    -211.479
  H      119.161      -5.957    -213.982
  H      122.574      -5.312    -215.141
  H      123.120      -6.962    -212.929
  H      121.060      -8.222    -213.238
  H      121.881      -8.425    -216.202
  H      119.974      -9.860    -215.506
  H      120.225      -1.903    -209.380
  H      118.988      -2.867    -210.180
  H      119.134      -8.420    -214.869
  P      122.400     -10.357    -212.547
  C      120.353     -11.691    -213.430
  O      120.880     -10.853    -212.407
  O      122.508      -9.188    -211.461
  O      123.447     -11.404    -212.358
  H      122.953      -9.503    -210.653
  H      119.337     -11.938    -213.201
  H      120.933     -12.588    -213.491
  H      120.392     -11.177    -214.368

 6  7  8  9  10  11  12  13  14  15  25  28  32  33  34  35 0
 6-311+G(2d,p)
 ****
 36  39  40 0
 6-311+G(2d,p)
 ****
 1  2  3  4  5  16  17  18  19  20  21  22  23  24 0
 3-21G
 ****
 26  27  29  30  31  37  38  41  42  43  44  45  46  47 0
 3-21G
 ****
 48 0
 3-21G
 ****


