%nproc=1
%NoSave
%Mem=1900MB
#P OB98/GEN NMR

erre ene a

0 1
  C      401.726    1118.680     545.356
  O      400.637    1119.291     544.699
  H      401.934    1117.725     544.872
  H      401.467    1118.497     546.404
  H      402.624    1119.305     545.301
  P      400.405    1120.861     544.886
  C      398.171    1120.426     543.663
  O      399.257    1121.327     543.866
  C      396.823    1121.146     543.666
  O      396.581    1121.722     544.964
  C      396.781    1122.306     542.659
  O      396.391    1121.931     541.347
  C      395.741    1123.227     543.287
  O      394.411    1122.884     542.868
  C      395.905    1122.975     544.795
  N      396.628    1125.695     549.068
  C      395.627    1124.781     548.772
  N      394.688    1124.618     549.732
  N      395.557    1124.127     547.647
  C      396.508    1124.476     546.753
  C      397.546    1125.378     546.922
  C      397.656    1126.039     548.201
  O      398.536    1126.844     548.514
  N      398.287    1125.502     545.780
  C      397.660    1124.754     544.892
  N      396.625    1124.040     545.466
  O      401.725    1121.512     544.239
  O      400.233    1121.326     546.303
  H      394.281    1123.223     541.967
  H      401.943    1122.345     544.703
  H      396.650    1126.149     549.963
  H      397.936    1124.646     543.852
  H      394.931    1122.882     545.293
  H      395.908    1124.260     542.992
  H      394.641    1125.163     550.584
  H      397.738    1122.835     542.633
  H      393.829    1124.106     549.487
  H      396.022    1120.418     543.484
  H      398.210    1119.706     544.481
  H      398.305    1119.875     542.728
  P      397.274    1122.339     540.074
  C      395.113    1122.458     538.581
  O      396.445    1122.014     538.760
  O      398.434    1121.247     540.077
  O      397.819    1123.732     540.100
  H      399.242    1121.592     540.474
  H      394.752    1122.127     537.630
  H      395.085    1123.527     538.621
  H      394.496    1122.056     539.357

 6  7  8  9  10  11  12  13  14  15  26  29  33  34 0
 6-311+G(2d,p)
 ****
 36  38  39  40  41 0
 6-311+G(2d,p)
 ****
 1  2  3  4  5  16  17  18  19  20  21  22  23  24  25 0
 3-21G
 ****
 27  28  30  31  32  35  37  42  43  44  45  46  47 0
 3-21G
 ****
 48  49 0
 3-21G
 ****


