%nproc=1
%NoSave
%Mem=1900MB
#P OB98/GEN NMR

erre ene a

0 1
  C     -553.583      38.200      -7.566
  O     -553.763      37.515      -8.791
  H     -554.366      38.956      -7.469
  H     -552.610      38.698      -7.557
  H     -553.653      37.503      -6.726
  P     -552.821      36.248      -9.057
  C     -553.062      36.989     -11.565
  O     -552.885      35.932     -10.632
  C     -552.664      36.524     -12.965
  O     -551.320      36.015     -12.981
  C     -553.501      35.364     -13.490
  O     -554.816      35.749     -13.822
  C     -552.659      34.939     -14.681
  O     -552.874      35.804     -15.804
  C     -551.224      35.112     -14.121
  N     -550.607      33.847     -13.757
  C     -550.428      32.935     -14.805
  O     -550.776      33.228     -15.946
  N     -549.892      31.704     -14.519
  C     -549.541      31.414     -13.302
  N     -549.021      30.178     -13.085
  C     -549.685      32.357     -12.177
  C     -550.228      33.537     -12.470
  O     -553.665      35.047      -8.422
  O     -551.428      36.370      -8.536
  H     -552.366      35.422     -16.544
  H     -554.574      34.989      -8.755
  H     -549.372      32.079     -11.181
  H     -550.373      34.284     -11.704
  H     -550.580      35.607     -14.861
  H     -552.899      33.925     -15.008
  H     -553.499      34.542     -12.762
  H     -552.713      37.390     -13.637
  H     -548.956      29.552     -13.881
  H     -552.484      37.872     -11.273
  H     -548.747      29.831     -12.180
  H     -554.122      37.271     -11.548
  P     -556.034      35.427     -12.826
  C     -557.714      34.721     -14.645
  O     -557.381      35.694     -13.664
  O     -555.978      36.119     -11.506
  O     -556.015      33.827     -12.723
  H     -556.136      33.363     -13.575
  H     -558.623      35.004     -15.134
  H     -557.844      33.769     -14.174
  H     -556.926      34.657     -15.366

 6  7  8  9  10  11  12  13  14  15  16  26  30  31  32  33  35 0
 6-311+G(2d,p)
 ****
 37  38 0
 6-311+G(2d,p)
 ****
 1  2  3  4  5  17  18  19  20  21  22  23  24  25 0
 3-21G
 ****
 27  28  29  34  36  39  40  41  42  43  44  45  46 0
 3-21G
 ****


