%nproc=1
%NoSave
%Mem=1900MB
#P OB98/GEN NMR

erre ene a

0 1
  C      191.505    -324.139     308.573
  O      192.446    -323.339     309.260
  P      193.484    -323.994     310.289
  C      191.892    -323.831     312.289
  O      193.142    -323.424     311.754
  C      191.164    -322.655     312.948
  O      189.803    -323.066     313.271
  C      191.807    -322.144     314.242
  O      191.583    -320.728     314.285
  C      190.979    -322.823     315.323
  O      191.068    -322.169     316.583
  C      189.601    -322.781     314.677
  N      186.504    -323.812     318.612
  C      187.324    -322.770     318.365
  N      188.137    -322.585     317.306
  C      188.044    -323.613     316.443
  C      187.273    -324.762     316.573
  C      186.457    -324.834     317.720
  N      185.589    -325.876     317.971
  N      187.496    -325.607     315.506
  C      188.380    -324.990     314.754
  N      188.690    -323.752     315.249
  O      194.921    -323.893     309.899
  O      193.019    -325.526     310.382
  H      190.539    -322.673     317.231
  H      193.650    -326.094     309.895
  H      187.324    -321.984     319.114
  H      188.820    -325.384     313.851
  H      189.136    -321.789     314.757
  H      191.330    -323.854     315.457
  H      192.881    -322.368     314.326
  H      191.089    -321.843     312.209
  H      192.081    -324.606     313.041
  H      184.954    -325.762     318.744
  H      185.340    -326.502     317.211
  H      191.267    -324.264     311.494
  P      192.821    -319.723     314.462
  C      192.087    -319.066     316.830
  O      192.362    -318.609     315.512
  O      193.412    -319.205     313.195
  O      193.886    -320.591     315.301
  H      194.773    -320.181     315.220
  H      191.082    -319.507     316.858
  H      192.128    -318.221     317.517
  H      192.819    -319.820     317.141
  H      190.907    -323.520     307.937
  H      190.876    -324.637     309.281
  H      192.020    -324.866     307.981

 3  4  5  6  7  8  9  10  11  12  22  25  29  30  31  32 0
 6-311+G(2d,p)
 ****
 33  36  37 0
 6-311+G(2d,p)
 ****
 1  2  13  14  15  16  17  18  19  20  21  23  24  26 0
 3-21G
 ****
 27  28  34  35  38  39  40  41  42  43  44  45  46  47  48 0
 3-21G
 ****


