%nproc=1
%NoSave
%Mem=1900MB
#P OB98/GEN NMR

erre ene a

0 1
  C     1419.377    -897.120     628.096
  O     1419.260    -895.910     627.314
  P     1420.622    -895.350     626.683
  C     1420.408    -896.220     624.241
  O     1421.053    -896.340     625.507
  C     1419.427    -897.400     624.042
  O     1418.442    -897.480     625.073
  C     1418.644    -897.290     622.712
  O     1419.452    -897.720     621.636
  C     1417.464    -898.220     623.024
  O     1417.804    -899.600     622.750
  C     1417.224    -898.010     624.493
  N     1412.198    -897.310     624.263
  C     1412.990    -898.310     623.681
  N     1412.323    -899.250     622.982
  N     1414.283    -898.350     623.809
  C     1414.786    -897.360     624.555
  C     1414.100    -896.320     625.197
  C     1412.661    -896.300     625.056
  O     1411.929    -895.460     625.546
  N     1414.965    -895.540     625.916
  C     1416.160    -895.970     625.601
  N     1416.121    -897.120     624.841
  O     1421.693    -895.610     627.838
  O     1420.534    -893.900     626.297
  H     1418.561    -899.850     623.302
  H     1421.973    -894.740     628.221
  H     1411.196    -897.330     624.125
  H     1417.084    -895.520     625.925
  H     1417.018    -898.960     625.009
  H     1416.615    -897.980     622.372
  H     1411.353    -899.280     622.821
  H     1418.283    -896.270     622.568
  H     1412.907    -900.000     622.543
  H     1420.013    -898.310     624.045
  H     1421.132    -896.210     623.421
  H     1419.866    -895.260     624.223
  P     1420.376    -896.650     620.920
  C     1422.691    -897.810     620.969
  O     1421.871    -896.810     621.494
  O     1419.857    -895.260     621.527
  O     1420.278    -896.630     619.419
  H     1419.749    -894.610     620.822
  H     1423.714    -897.500     621.052
  H     1422.464    -898.020     619.910
  H     1422.545    -898.720     621.574
  H     1418.413    -897.400     628.466
  H     1420.039    -896.950     628.919
  H     1419.766    -897.905     627.482

 3  4  5  6  7  8  9  10  11  12  23  26  30  31 0
 6-311+G(2d,p)
 ****
 33  35  36  37  38 0
 6-311+G(2d,p)
 ****
 1  2  13  14  15  16  17  18  19  20  21  22  24  25 0
 3-21G
 ****
 27  28  29  32  34  39  40  41  42  43  44  45  46  47  48  49 0
 3-21G
 ****


