%nproc=1
%NoSave
%Mem=1900MB
#P OB98/GEN NMR

erre ene a

0 1
  C     -201.028     386.245     532.138
  O     -200.229     385.787     533.202
  H     -200.411     386.841     531.463
  H     -201.836     386.883     532.513
  H     -201.442     385.404     531.573
  P     -200.896     384.915     534.370
  C     -200.095     382.706     533.329
  O     -201.223     383.485     533.701
  C     -200.485     381.597     532.347
  O     -200.806     382.177     531.050
  C     -199.391     380.541     532.126
  O     -199.947     379.231     532.225
  C     -198.918     380.806     530.699
  O     -198.336     379.669     530.090
  C     -200.228     381.307     530.055
  N     -199.991     381.988     528.801
  C     -199.611     381.166     527.713
  O     -199.504     379.955     527.880
  N     -199.298     381.755     526.519
  C     -199.340     383.048     526.402
  N     -199.000     383.557     525.199
  C     -199.706     383.946     527.523
  C     -200.020     383.357     528.676
  O     -202.045     385.569     535.062
  O     -199.688     384.567     535.360
  H     -197.993     379.081     530.791
  H     -200.060     384.350     536.252
  H     -199.707     385.021     527.378
  H     -200.295     383.938     529.555
  H     -200.923     380.478     529.892
  H     -198.182     381.615     530.706
  H     -198.567     380.631     532.839
  H     -201.415     381.132     532.706
  H     -198.745     382.919     524.469
  H     -199.654     382.278     534.244
  H     -198.953     384.553     525.000
  H     -199.362     383.366     532.851
  P     -199.838     378.507     533.652
  C     -202.402     378.704     534.044
  O     -201.095     378.988     534.537
  O     -198.584     379.239     534.345
  O     -199.644     377.032     533.561
  H     -197.839     378.616     534.399
  H     -203.132     379.079     534.731
  H     -202.522     377.646     533.939
  H     -202.534     379.174     533.092

 6  7  8  9  10  11  12  13  14  15  16  26  30  31  32  33  35 0
 6-311+G(2d,p)
 ****
 37  38 0
 6-311+G(2d,p)
 ****
 1  2  3  4  5  17  18  19  20  21  22  23  24  25 0
 3-21G
 ****
 27  28  29  34  36  39  40  41  42  43  44  45  46 0
 3-21G
 ****


