%nproc=1
%NoSave
%Mem=1900MB
#P OB98/GEN NMR

erre ene a

0 1
  C      -46.712      24.597     -49.030
  O      -46.375      25.181     -47.783
  P      -46.675      26.747     -47.588
  C      -48.854      28.155     -47.706
  O      -48.141      27.021     -48.180
  C      -49.650      28.810     -48.836
  O      -48.724      29.483     -49.734
  C      -50.480      27.832     -49.682
  O      -51.671      28.527     -50.068
  C      -49.571      27.593     -50.875
  O      -50.228      27.035     -51.999
  C      -49.000      28.995     -51.066
  N      -47.104      29.976     -55.710
  C      -48.344      30.130     -55.193
  N      -48.773      29.854     -53.944
  C      -47.765      29.381     -53.191
  C      -46.457      29.154     -53.583
  C      -46.134      29.475     -54.912
  N      -44.869      29.309     -55.439
  N      -45.715      28.636     -52.543
  C      -46.561      28.550     -51.537
  N      -47.805      29.008     -51.875
  O      -45.711      27.434     -48.663
  O      -46.436      27.268     -46.206
  H      -51.021      27.562     -52.219
  H      -45.324      28.259     -48.313
  H      -49.092      30.526     -55.874
  H      -46.330      28.155     -50.558
  H      -49.727      29.675     -51.528
  H      -48.781      26.891     -50.585
  H      -50.757      26.920     -49.144
  H      -50.299      29.579     -48.400
  H      -48.146      28.891     -47.314
  H      -44.791      29.377     -56.443
  H      -44.218      28.747     -54.904
  H      -49.513      27.852     -46.885
  P      -53.030      27.694     -50.256
  C      -54.492      26.470     -48.534
  O      -53.185      26.893     -48.873
  O      -52.541      26.535     -51.246
  O      -54.208      28.469     -50.735
  H      -51.732      26.102     -50.920
  H      -54.437      25.859     -47.629
  H      -54.918      25.870     -49.342
  H      -55.125      27.339     -48.336
  H      -46.458      23.558     -49.017
  H      -46.170      25.087     -49.811
  H      -47.762      24.706     -49.203

 3  4  5  6  7  8  9  10  11  12  22  25  29  30  31  32 0
 6-311+G(2d,p)
 ****
 33  36  37 0
 6-311+G(2d,p)
 ****
 1  2  13  14  15  16  17  18  19  20  21  23  24  26 0
 3-21G
 ****
 27  28  34  35  38  39  40  41  42  43  44  45  46  47  48 0
 3-21G
 ****


