%nproc=1
%NoSave
%Mem=1900MB
#P OB98/GEN NMR

erre ene a

0 1
  C     -260.657     188.872    -119.453
  O     -259.516     189.580    -119.897
  P     -258.403     190.040    -118.845
  C     -257.053     190.880    -120.863
  O     -257.505     191.169    -119.544
  C     -256.316     192.084    -121.446
  O     -255.304     192.545    -120.528
  C     -255.585     191.791    -122.751
  O     -256.490     191.729    -123.835
  C     -254.603     192.955    -122.804
  O     -255.243     194.134    -123.319
  C     -254.250     193.139    -121.320
  N     -249.222     193.281    -122.168
  C     -250.256     193.892    -122.783
  N     -251.576     193.772    -122.524
  C     -251.781     192.898    -121.525
  C     -250.829     192.172    -120.826
  C     -249.486     192.408    -121.165
  N     -248.421     191.839    -120.505
  N     -251.437     191.351    -119.895
  C     -252.728     191.572    -120.037
  N     -252.978     192.545    -120.963
  O     -257.637     188.933    -118.198
  O     -259.231     190.866    -117.753
  H     -255.729     193.873    -124.124
  H     -259.136     190.437    -116.881
  H     -249.989     194.573    -123.586
  H     -253.511     191.071    -119.484
  H     -254.204     194.199    -121.042
  H     -253.739     192.748    -123.444
  H     -255.024     190.852    -122.661
  H     -257.044     192.895    -121.584
  H     -257.924     190.644    -121.481
  H     -247.503     192.186    -120.734
  H     -248.583     191.439    -119.584
  H     -256.393     190.008    -120.837
  P     -256.556     190.413    -124.743
  C     -258.368     191.600    -126.114
  O     -257.170     190.851    -126.157
  O     -257.198     189.223    -124.111
  O     -255.020     190.124    -125.097
  H     -254.884     189.163    -125.187
  H     -259.211     190.931    -125.922
  H     -258.514     192.086    -127.083
  H     -258.323     192.367    -125.336
  H     -261.286     188.649    -120.289
  H     -261.197     189.471    -118.750
  H     -260.351     187.960    -118.984

 3  4  5  6  7  8  9  10  11  12  22  25  29  30  31  32 0
 6-311+G(2d,p)
 ****
 33  36  37 0
 6-311+G(2d,p)
 ****
 1  2  13  14  15  16  17  18  19  20  21  23  24  26 0
 3-21G
 ****
 27  28  34  35  38  39  40  41  42  43  44  45  46  47  48 0
 3-21G
 ****


