%nproc=1
%NoSave
%Mem=1900MB
#P OB98/GEN NMR

erre ene a

0 1
  C      513.973      93.173     507.280
  O      515.330      93.227     507.706
  P      516.542      93.259     506.649
  C      517.394      90.917     507.361
  O      516.856      91.720     506.320
  C      518.153      89.729     506.766
  O      518.686      88.941     507.872
  C      517.293      88.793     505.906
  O      518.137      88.303     504.858
  C      516.924      87.678     506.869
  O      516.564      86.477     506.200
  C      518.209      87.584     507.701
  N      517.993      86.943     509.004
  C      518.441      85.633     509.153
  O      518.989      85.031     508.229
  N      518.273      85.016     510.381
  C      517.624      85.627     511.328
  N      517.536      85.003     512.525
  C      517.041      86.977     511.161
  C      517.278      87.569     509.993
  O      517.719      94.069     507.076
  O      515.863      93.751     505.288
  H      516.255      85.835     506.870
  H      515.807      94.747     505.223
  H      516.487      87.433     511.967
  H      516.902      88.574     509.792
  H      518.989      87.037     507.145
  H      516.073      87.998     507.488
  H      516.430      89.300     505.473
  H      519.006      90.105     506.198
  H      518.101      84.177     512.655
  H      516.567      90.546     507.974
  H      517.355      85.531     513.378
  H      518.047      91.531     507.992
  P      517.763      88.690     503.334
  C      516.821      86.329     502.802
  O      516.575      87.720     502.851
  O      519.026      88.106     502.538
  O      517.608      90.146     503.046
  H      519.128      88.601     501.709
  H      515.906      85.829     502.459
  H      517.072      85.940     503.802
  H      517.626      86.101     502.092
  H      513.331      93.159     508.136
  H      513.816      92.286     506.702
  H      513.752      94.033     506.682

 3  4  5  6  7  8  9  10  11  12  13  23  27  28  29  30  32 0
 6-311+G(2d,p)
 ****
 34  35 0
 6-311+G(2d,p)
 ****
 1  2  14  15  16  17  18  19  20  21  22  24  25  26 0
 3-21G
 ****
 31  33  36  37  38  39  40  41  42  43  44  45  46 0
 3-21G
 ****


