%nproc=1
%NoSave
%Mem=1900MB
#P OB98/GEN NMR

erre ene a

0 1
  C     -249.439     -17.880     549.299
  O     -249.786     -17.559     547.966
  H     -248.364     -17.732     549.425
  H     -249.679     -18.925     549.519
  H     -249.967     -17.222     549.996
  P     -251.297     -17.806     547.490
  C     -251.797     -15.315     547.000
  O     -252.100     -16.452     547.795
  C     -252.225     -14.023     547.708
  O     -251.450     -13.880     548.930
  C     -251.995     -12.755     546.873
  O     -252.996     -11.800     547.257
  C     -250.624     -12.321     547.358
  O     -250.336     -10.997     546.977
  C     -250.756     -12.616     548.854
  N     -249.472     -12.654     549.532
  C     -248.806     -11.434     549.668
  O     -249.302     -10.401     549.213
  N     -247.582     -11.415     550.287
  C     -247.039     -12.525     550.674
  N     -245.816     -12.437     551.265
  C     -247.681     -13.843     550.497
  C     -248.887     -13.834     549.931
  O     -251.945     -19.046     548.003
  O     -251.201     -17.815     545.891
  H     -250.073     -10.955     546.030
  H     -251.276     -18.731     545.564
  H     -247.180     -14.743     550.821
  H     -249.440     -14.753     549.757
  H     -251.387     -11.865     549.348
  H     -249.845     -12.950     546.919
  H     -252.040     -12.936     545.794
  H     -253.275     -14.115     548.004
  H     -245.410     -11.514     551.355
  H     -252.339     -15.421     546.055
  H     -245.291     -13.237     551.587
  H     -250.721     -15.279     546.786
  P     -254.329     -11.547     546.407
  C     -255.906     -12.780     548.029
  O     -255.380     -12.715     546.708
  O     -254.083     -11.310     544.949
  O     -255.007     -10.256     547.069
  H     -255.493      -9.762     546.385
  H     -256.592     -13.598     548.100
  H     -256.415     -11.867     548.255
  H     -255.106     -12.924     548.725

 6  7  8  9  10  11  12  13  14  15  16  26  30  31  32  33  35 0
 6-311+G(2d,p)
 ****
 37  38 0
 6-311+G(2d,p)
 ****
 1  2  3  4  5  17  18  19  20  21  22  23  24  25 0
 3-21G
 ****
 27  28  29  34  36  39  40  41  42  43  44  45  46 0
 3-21G
 ****


