%nproc=1
%NoSave
%Mem=1900MB
#P OB98/GEN NMR

erre ene a

0 1
  C      -81.335    -114.341      78.627
  O      -81.679    -115.717      78.440
  P      -81.114    -116.435      77.121
  C      -83.335    -117.383      76.184
  O      -82.279    -116.449      76.015
  C      -84.398    -117.229      75.091
  O      -85.166    -116.006      75.282
  C      -83.820    -117.173      73.675
  O      -84.762    -117.797      72.793
  C      -83.785    -115.687      73.378
  O      -83.706    -115.432      71.977
  C      -85.076    -115.243      74.061
  N      -86.054    -110.630      72.108
  C      -86.138    -111.870      71.583
  N      -85.836    -113.052      72.164
  C      -85.450    -112.862      73.438
  C      -85.306    -111.659      74.107
  C      -85.626    -110.497      73.387
  N      -85.515    -109.231      73.911
  N      -84.839    -111.871      75.390
  C      -84.701    -113.177      75.487
  N      -85.087    -113.821      74.346
  O      -80.995    -117.969      77.563
  O      -79.801    -115.898      76.656
  H      -84.506    -115.808      71.553
  H      -80.057    -118.211      77.673
  H      -86.491    -111.922      70.555
  H      -84.324    -113.703      76.351
  H      -85.965    -115.457      73.456
  H      -82.910    -115.231      73.859
  H      -82.839    -117.646      73.562
  H      -85.097    -118.071      75.169
  H      -83.805    -117.244      77.162
  H      -85.737    -108.448      73.318
  H      -85.154    -109.116      74.846
  H      -82.918    -118.395      76.194
  P      -84.431    -119.296      72.334
  C      -83.833    -118.753      69.870
  O      -83.373    -119.176      71.138
  O      -85.774    -119.775      71.609
  O      -84.044    -120.205      73.454
  H      -85.851    -120.746      71.649
  H      -83.094    -118.072      69.436
  H      -84.796    -118.235      69.930
  H      -83.939    -119.624      69.220
  H      -81.771    -113.985      79.537
  H      -81.706    -113.766      77.805
  H      -80.271    -114.243      78.679

 3  4  5  6  7  8  9  10  11  12  22  25  29  30  31  32 0
 6-311+G(2d,p)
 ****
 33  36  37 0
 6-311+G(2d,p)
 ****
 1  2  13  14  15  16  17  18  19  20  21  23  24  26 0
 3-21G
 ****
 27  28  34  35  38  39  40  41  42  43  44  45  46  47  48 0
 3-21G
 ****


