%nproc=1
%NoSave
%Mem=1900MB
#P OB98/GEN NMR

erre ene a

0 1
  C      266.133    -132.875    -195.726
  O      265.491    -132.647    -196.976
  P      266.167    -131.586    -197.975
  C      263.933    -130.404    -198.575
  O      265.022    -131.197    -199.032
  C      263.364    -129.573    -199.719
  O      264.351    -128.636    -200.200
  C      262.939    -130.383    -200.938
  O      261.649    -130.957    -200.780
  C      262.909    -129.300    -202.009
  O      261.691    -128.534    -201.894
  C      264.112    -128.436    -201.617
  N      268.248    -126.537    -203.951
  C      267.189    -125.937    -203.368
  N      266.120    -126.510    -202.781
  C      266.200    -127.849    -202.863
  C      267.202    -128.602    -203.457
  C      268.274    -127.892    -204.016
  N      269.368    -128.504    -204.584
  N      266.930    -129.947    -203.342
  C      265.794    -130.015    -202.683
  N      265.316    -128.773    -202.360
  O      267.170    -132.494    -198.835
  O      266.868    -130.451    -197.312
  H      260.964    -129.181    -201.780
  H      267.881    -131.947    -199.208
  H      267.205    -124.848    -203.369
  H      265.284    -130.929    -202.410
  H      263.926    -127.363    -201.763
  H      262.941    -129.701    -203.022
  H      263.693    -131.133    -201.198
  H      262.512    -128.996    -199.329
  H      264.292    -129.727    -197.788
  H      270.176    -127.934    -204.793
  H      269.477    -129.507    -204.448
  H      263.166    -131.061    -198.156
  P      261.602    -132.517    -200.411
  C      260.646    -133.015    -202.784
  O      260.482    -133.140    -201.383
  O      260.898    -132.527    -198.971
  O      262.926    -133.191    -200.410
  H      261.162    -133.330    -198.474
  H      259.998    -133.739    -203.282
  H      261.686    -133.218    -203.079
  H      260.364    -132.004    -203.102
  H      265.578    -133.599    -195.167
  H      266.179    -131.958    -195.176
  H      267.125    -133.239    -195.896

 3  4  5  6  7  8  9  10  11  12  22  25  29  30  31  32 0
 6-311+G(2d,p)
 ****
 33  36  37 0
 6-311+G(2d,p)
 ****
 1  2  13  14  15  16  17  18  19  20  21  23  24  26 0
 3-21G
 ****
 27  28  34  35  38  39  40  41  42  43  44  45  46  47  48 0
 3-21G
 ****


