%nproc=1
%NoSave
%Mem=1900MB
#P OB98/GEN NMR

erre ene a

0 1
  C     -170.991     117.661      26.154
  O     -169.605     117.643      25.826
  P     -168.838     119.040      25.656
  C     -167.745     120.734      27.371
  O     -168.084     119.412      27.013
  C     -166.835     120.706      28.611
  O     -167.461     119.960      29.676
  C     -165.478     120.058      28.347
  O     -164.536     120.984      27.838
  C     -165.119     119.517      29.715
  O     -164.638     120.577      30.563
  C     -166.496     119.013      30.213
  N     -166.913     117.644      29.833
  C     -167.518     116.818      30.779
  O     -167.735     117.141      31.943
  N     -167.890     115.574      30.338
  C     -167.883     115.142      29.044
  O     -168.283     114.038      28.700
  C     -167.375     116.105      28.064
  C     -166.912     117.283      28.493
  O     -170.019     120.112      25.569
  O     -167.931     119.107      24.467
  H     -164.013     121.106      30.037
  H     -170.027     120.539      24.692
  H     -168.263     114.936      31.025
  H     -167.393     115.821      27.019
  H     -166.532     118.004      27.774
  H     -166.554     119.068      31.307
  H     -164.313     118.789      29.656
  H     -165.592     119.205      27.669
  H     -166.692     121.738      28.957
  H     -168.640     121.324      27.581
  H     -167.232     121.222      26.536
  P     -163.651     120.601      26.559
  C     -164.946     120.000      24.426
  O     -164.523     121.043      25.283
  O     -163.116     119.209      26.525
  O     -162.479     121.697      26.573
  H     -161.673     121.339      27.011
  H     -165.654     120.410      23.701
  H     -165.442     119.213      25.001
  H     -164.087     119.587      23.891
  H     -171.352     116.657      26.231
  H     -171.532     118.177      25.388
  H     -171.130     118.163      27.089

 3  4  5  6  7  8  9  10  11  12  13  23  28  29  30  31  32 0
 6-311+G(2d,p)
 ****
 33  34 0
 6-311+G(2d,p)
 ****
 1  2  14  15  16  17  18  19  20  21  22  24  25  26  27 0
 3-21G
 ****
 35  36  37  38  39  40  41  42  43  44  45 0
 3-21G
 ****


