%nproc=1
%NoSave
%Mem=1900MB
#P OB98/GEN NMR

erre ene a

0 1
  C      260.117     192.989     168.072
  O      259.276     194.020     168.596
  P      260.009     195.175     169.437
  C      257.950     195.695     170.932
  O      258.883     196.184     169.976
  C      256.593     196.384     170.765
  O      255.875     195.907     169.611
  C      255.661     196.178     171.951
  O      256.012     197.058     173.004
  C      254.302     196.489     171.337
  O      254.044     197.908     171.329
  C      254.454     195.964     169.900
  N      250.110     193.370     169.591
  C      250.337     194.667     170.012
  N      249.251     195.382     170.379
  N      251.525     195.214     170.066
  C      252.518     194.382     169.664
  C      252.412     193.091     169.200
  C      251.093     192.494     169.150
  O      250.836     191.361     168.762
  N      253.634     192.588     168.828
  C      254.487     193.531     169.189
  N      253.855     194.667     169.643
  O      260.779     196.017     168.316
  O      260.947     194.651     170.473
  H      254.783     198.365     170.889
  H      261.741     195.876     168.398
  H      249.175     192.998     169.576
  H      255.561     193.453     169.118
  H      254.006     196.653     169.173
  H      253.486     196.029     171.901
  H      248.309     195.024     170.360
  H      255.695     195.130     172.284
  H      249.398     196.337     170.683
  H      256.787     197.456     170.623
  H      258.325     195.865     171.943
  H      257.855     194.610     170.809
  P      255.527     196.689     174.487
  C      255.548     199.152     175.304
  O      256.052     197.840     175.465
  O      256.436     195.421     174.859
  O      254.078     196.359     174.598
  H      255.887     194.738     175.283
  H      255.555     199.655     176.277
  H      254.524     199.148     174.916
  H      256.193     199.702     174.614
  H      259.521     192.281     167.534
  H      260.619     192.494     168.877
  H      260.841     193.420     167.412

 3  4  5  6  7  8  9  10  11  12  23  26  30  31 0
 6-311+G(2d,p)
 ****
 33  35  36  37  38 0
 6-311+G(2d,p)
 ****
 1  2  13  14  15  16  17  18  19  20  21  22  24  25 0
 3-21G
 ****
 27  28  29  32  34  39  40  41  42  43  44  45  46  47  48  49 0
 3-21G
 ****


