%nproc=1
%NoSave
%Mem=1900MB
#P OB98/GEN NMR

erre ene a

0 1
  C       11.533    -129.942     221.846
  O       10.743    -130.256     220.690
  P       11.380    -130.606     219.259
  C       11.626    -133.111     219.826
  O       11.101    -132.153     218.917
  C       10.646    -134.266     220.065
  O        9.304    -133.746     220.306
  C       10.548    -135.267     218.899
  O       10.421    -136.568     219.484
  C        9.255    -134.832     218.218
  O        8.700    -135.818     217.368
  C        8.411    -134.499     219.454
  N        7.187    -133.747     219.195
  C        5.989    -134.464     219.115
  O        5.965    -135.692     219.204
  N        4.819    -133.768     218.915
  C        4.843    -132.477     218.795
  N        3.651    -131.849     218.608
  C        6.083    -131.685     218.850
  C        7.206    -132.376     219.053
  O       12.818    -130.220     219.130
  O       10.487    -129.813     218.190
  H       11.058    -129.505     217.457
  H        7.994    -135.396     216.844
  H        6.059    -130.610     218.754
  H        8.159    -131.864     219.137
  H        8.166    -135.425     219.986
  H        9.462    -133.943     217.613
  H       11.421    -135.258     218.239
  H       10.952    -134.784     220.985
  H        2.816    -132.427     218.584
  H       11.821    -132.613     220.782
  H        3.552    -130.851     218.510
  H       12.580    -133.491     219.438
  P       11.733    -137.338     219.998
  C       12.600    -136.185     222.170
  O       11.787    -137.188     221.593
  O       12.902    -136.343     219.534
  O       11.964    -138.702     219.430
  H       13.728    -136.845     219.420
  H       12.039    -135.688     222.965
  H       12.911    -135.434     221.440
  H       13.489    -136.652     222.602
  H       10.888    -129.745     222.676
  H       12.130    -129.077     221.646
  H       12.171    -130.769     222.078

 3  4  5  6  7  8  9  10  11  12  13  24  27  28  29  30  32 0
 6-311+G(2d,p)
 ****
 34  35 0
 6-311+G(2d,p)
 ****
 1  2  14  15  16  17  18  19  20  21  22  23  25  26 0
 3-21G
 ****
 31  33  36  37  38  39  40  41  42  43  44  45  46 0
 3-21G
 ****


