%nproc=1
%NoSave
%Mem=1900MB
#P OB98/GEN NMR

erre ene a

0 1
  C      237.054     576.199     -44.434
  O      235.822     576.504     -43.822
  P      235.651     576.766     -42.258
  C      234.370     574.511     -41.906
  O      235.451     575.357     -41.525
  C      234.018     573.527     -40.780
  O      232.888     572.724     -41.209
  C      235.174     572.554     -40.499
  O      235.399     572.303     -39.119
  C      234.837     571.361     -41.380
  O      235.483     570.160     -40.984
  C      233.315     571.350     -41.319
  N      231.248     567.129     -43.261
  C      231.595     567.405     -41.952
  N      231.552     566.363     -41.093
  N      231.980     568.587     -41.542
  C      232.081     569.500     -42.534
  C      231.762     569.344     -43.865
  C      231.307     568.043     -44.297
  O      231.100     567.724     -45.469
  N      232.057     570.465     -44.591
  C      232.582     571.295     -43.711
  N      232.650     570.737     -42.455
  O      234.757     577.897     -41.864
  O      237.157     577.160     -41.826
  H      235.414     569.530     -41.725
  H      237.085     577.821     -41.109
  H      231.036     566.176     -43.531
  H      232.957     572.284     -43.930
  H      232.949     570.817     -40.436
  H      235.186     571.588     -42.394
  H      231.403     565.419     -41.412
  H      236.128     572.981     -40.836
  H      232.036     566.476     -40.205
  H      233.710     574.086     -39.895
  H      234.704     573.965     -42.795
  H      233.497     575.108     -42.186
  P      236.762     571.933     -38.375
  C      235.987     569.593     -37.660
  O      236.935     570.337     -38.395
  O      236.488     572.234     -36.826
  O      237.960     572.692     -38.847
  H      237.283     572.633     -36.428
  H      236.368     568.575     -37.527
  H      235.046     569.546     -38.212
  H      235.819     570.040     -36.676
  H      236.907     576.068     -45.486
  H      237.447     575.297     -44.014
  H      237.743     577.000     -44.267

 3  4  5  6  7  8  9  10  11  12  23  26  30  31 0
 6-311+G(2d,p)
 ****
 33  35  36  37  38 0
 6-311+G(2d,p)
 ****
 1  2  13  14  15  16  17  18  19  20  21  22  24  25 0
 3-21G
 ****
 27  28  29  32  34  39  40  41  42  43  44  45  46  47  48  49 0
 3-21G
 ****


