%nproc=1
%NoSave
%Mem=1900MB
#P OB98/GEN NMR

erre ene a

0 1
  C      116.908    -287.523     119.502
  O      116.675    -288.815     120.065
  P      115.193    -289.228     120.506
  C      115.137    -291.812     120.599
  O      115.248    -290.599     121.334
  C      114.995    -292.996     121.560
  O      116.245    -293.287     122.231
  C      114.005    -292.730     122.686
  O      112.641    -292.653     122.329
  C      114.396    -293.777     123.715
  O      113.807    -295.044     123.427
  C      115.931    -293.836     123.528
  N      116.656    -293.138     124.591
  C      116.548    -293.685     125.865
  O      115.858    -294.668     126.123
  N      117.240    -293.036     126.852
  C      117.981    -291.901     126.699
  O      118.562    -291.347     127.623
  C      118.038    -291.357     125.333
  C      117.383    -291.988     124.357
  O      114.159    -289.174     119.432
  O      114.856    -288.151     121.653
  H      112.842    -294.949     123.535
  H      113.928    -287.871     121.535
  H      117.180    -293.422     127.782
  H      118.613    -290.454     125.175
  H      117.413    -291.604     123.344
  H      116.275    -294.878     123.520
  H      114.072    -293.495     124.721
  H      114.249    -291.752     123.124
  H      114.718    -293.881     120.983
  H      116.016    -291.942     119.965
  H      114.276    -291.741     119.925
  P      111.947    -291.311     121.793
  C      110.501    -292.162     119.817
  O      110.531    -291.696     121.148
  O      112.803    -290.350     121.039
  O      111.498    -290.617     123.173
  H      111.552    -289.649     123.061
  H      109.461    -292.358     119.540
  H      111.068    -293.091     119.724
  H      110.906    -291.407     119.139
  H      117.947    -287.418     119.267
  H      116.624    -286.770     120.207
  H      116.328    -287.413     118.610

 3  4  5  6  7  8  9  10  11  12  13  23  28  29  30  31  32 0
 6-311+G(2d,p)
 ****
 33  34 0
 6-311+G(2d,p)
 ****
 1  2  14  15  16  17  18  19  20  21  22  24  25  26  27 0
 3-21G
 ****
 35  36  37  38  39  40  41  42  43  44  45 0
 3-21G
 ****


