%nproc=1
%NoSave
%Mem=1900MB
#P OB98/GEN NMR

erre ene a

0 1
  C      593.251      60.650    1117.529
  O      593.726      59.866    1118.603
  H      593.088      60.003    1116.661
  H      593.993      61.412    1117.258
  H      592.307      61.128    1117.801
  P      594.138      60.640    1119.944
  C      592.732      59.139    1121.531
  O      592.936      60.437    1120.983
  C      593.167      59.127    1122.996
  O      592.324      60.025    1123.769
  C      593.051      57.772    1123.671
  O      594.118      56.902    1123.342
  C      593.061      58.172    1125.137
  O      594.396      58.337    1125.630
  C      592.308      59.517    1125.128
  N      590.946      59.382    1125.638
  C      590.829      59.254    1127.010
  O      591.801      59.250    1127.771
  N      589.554      59.076    1127.490
  C      588.428      58.977    1126.734
  O      587.319      58.761    1127.230
  C      588.611      59.106    1125.283
  C      589.837      59.289    1124.799
  O      594.024      62.182    1119.530
  O      595.490      60.305    1120.471
  H      594.916      62.561    1119.423
  H      594.716      57.437    1125.834
  H      589.459      58.984    1128.489
  H      587.733      59.021    1124.655
  H      589.997      59.379    1123.730
  H      592.827      60.262    1125.738
  H      592.575      57.418    1125.748
  H      592.077      57.314    1123.437
  H      594.206      59.495    1123.055
  H      593.329      58.400    1120.979
  H      591.673      58.871    1121.435
  P      593.756      55.414    1122.859
  C      593.918      55.979    1120.286
  O      593.118      55.577    1121.392
  O      592.499      55.080    1123.809
  O      594.899      54.455    1122.968
  H      592.030      55.903    1124.079
  H      593.311      56.028    1119.406
  H      594.704      55.269    1120.138
  H      594.340      56.943    1120.482

 6  7  8  9  10  11  12  13  14  15  16  27  31  32  33  34  35 0
 6-311+G(2d,p)
 ****
 36  37 0
 6-311+G(2d,p)
 ****
 1  2  3  4  5  17  18  19  20  21  22  23  24  25 0
 3-21G
 ****
 26  28  29  30  38  39  40  41  42  43  44  45 0
 3-21G
 ****


