%nproc=1
%NoSave
%Mem=1900MB
#P OB98/GEN NMR

erre ene a

0 1
  C      253.163     -86.067      49.285
  O      253.590     -87.414      49.332
  H      252.094     -86.022      49.512
  H      253.332     -85.654      48.285
  H      253.702     -85.473      50.029
  P      255.142     -87.690      49.052
  C      255.081     -86.944      46.563
  O      255.269     -88.011      47.485
  C      255.206     -87.474      45.133
  O      256.510     -88.072      44.944
  C      254.200     -88.556      44.786
  O      252.914     -88.040      44.501
  C      254.871     -89.214      43.590
  O      254.600     -88.501      42.375
  C      256.359     -89.108      43.943
  N      258.041     -93.747      42.594
  C      257.652     -92.671      41.855
  N      257.228     -91.473      42.296
  C      257.256     -91.422      43.646
  C      257.629     -92.427      44.519
  C      258.030     -93.637      43.942
  N      258.400     -94.742      44.689
  N      257.473     -92.007      45.836
  C      257.034     -90.768      45.738
  N      256.888     -90.371      44.448
  O      255.392     -89.109      49.755
  O      256.078     -86.642      49.568
  H      253.726     -88.804      42.063
  H      255.812     -88.974      50.624
  H      257.687     -92.807      40.781
  H      256.801     -90.131      46.587
  H      256.975     -88.820      43.076
  H      254.515     -90.237      43.459
  H      254.141     -89.294      45.604
  H      255.114     -86.621      44.434
  H      255.843     -86.175      46.731
  H      254.095     -86.499      46.728
  H      258.624     -95.595      44.212
  H      258.293     -94.712      45.695
  P      251.684     -88.519      45.411
  C      251.610     -91.049      44.741
  O      251.006     -89.764      44.670
  O      250.610     -87.348      45.273
  O      252.038     -88.792      46.841
  H      250.130     -87.228      46.118
  H      251.020     -91.751      44.190
  H      251.671     -91.359      45.763
  H      252.594     -91.004      44.323

 6  7  8  9  10  11  12  13  14  15  25  28  32  33  34  35 0
 6-311+G(2d,p)
 ****
 36  37  40 0
 6-311+G(2d,p)
 ****
 1  2  3  4  5  16  17  18  19  20  21  22  23  24 0
 3-21G
 ****
 26  27  29  30  31  38  39 41  42  43  44  45  46  47  48 0
 3-21G
 ****


