%nproc=1
%NoSave
%Mem=1900MB
#P OB98/GEN NMR

erre ene a

0 1
  C       69.586    -523.051     126.951
  O       69.534    -523.572     125.639
  H       69.619    -523.865     127.680
  H       70.493    -522.449     127.055
  H       68.715    -522.415     127.142
  P       68.268    -524.485     125.272
  C       67.300    -526.320     126.839
  O       68.434    -525.831     126.134
  C       67.703    -527.525     127.680
  O       68.790    -527.176     128.565
  C       66.595    -528.062     128.580
  O       65.692    -528.900     127.881
  C       67.412    -528.853     129.586
  O       67.824    -530.102     129.001
  C       68.626    -527.937     129.792
  N       70.830    -526.069     134.013
  C       71.235    -526.998     133.125
  N       70.587    -527.446     132.029
  C       69.403    -526.825     131.891
  C       68.856    -525.862     132.723
  C       69.630    -525.474     133.829
  N       69.214    -524.536     134.749
  N       67.603    -525.486     132.276
  C       67.415    -526.188     131.175
  N       68.470    -527.018     130.908
  O       68.575    -524.973     123.779
  O       66.935    -523.827     125.393
  H       68.303    -529.882     128.180
  H       67.750    -525.256     123.342
  H       72.202    -527.447     133.323
  H       66.540    -526.131     130.542
  H       69.552    -528.499     129.960
  H       66.860    -529.091     130.494
  H       66.070    -527.251     129.102
  H       68.066    -528.310     127.000
  H       66.532    -526.619     126.121
  H       69.754    -524.466     135.598
  H       68.261    -524.201     134.700
  H       66.903    -525.525     127.477
  P       64.170    -528.935     128.389
  C       63.125    -528.970     130.770
  O       64.237    -529.307     129.945
  O       63.591    -530.262     127.711
  O       63.369    -527.721     128.043
  H       62.622    -530.195     127.589
  H       63.320    -529.281     131.775
  H       62.249    -529.465     130.407
  H       62.972    -527.911     130.747

 6  7  8  9  10  11  12  13  14  15  25  28  32  33  34  35 0
 6-311+G(2d,p)
 ****
 36  39  40 0
 6-311+G(2d,p)
 ****
 1  2  3  4  5  16  17  18  19  20  21  22  23  24 0
 3-21G
 ****
 26  27  29  30  31  37  38  41  42  43  44  45  46  47 0
 3-21G
 ****
 48 0
 3-21G
 ****


