%nproc=1
%NoSave
%Mem=1900MB
#P OB98/GEN NMR

erre ene a

0 1
  C     -263.839     -73.001    -383.481
  O     -263.021     -71.852    -383.627
  P     -262.032     -71.458    -382.428
  C     -262.376     -69.888    -380.349
  O     -262.941     -70.783    -381.293
  C     -263.401     -68.816    -379.958
  O     -263.732     -68.029    -381.140
  C     -264.713     -69.367    -379.388
  O     -265.162     -68.443    -378.388
  C     -265.644     -69.341    -380.590
  O     -267.012     -69.331    -380.225
  C     -265.167     -68.057    -381.289
  N     -265.536     -67.998    -382.704
  C     -266.604     -67.181    -383.062
  O     -267.271     -66.531    -382.257
  N     -266.916     -67.161    -384.398
  C     -266.318     -67.908    -385.377
  O     -266.648     -67.856    -386.555
  C     -265.226     -68.781    -384.933
  C     -264.883     -68.781    -383.642
  O     -261.235     -70.234    -383.076
  O     -261.178     -72.590    -381.958
  H     -261.789     -69.683    -383.655
  H     -267.540     -69.210    -381.035
  H     -267.667     -66.549    -384.686
  H     -264.739     -69.399    -385.676
  H     -264.081     -69.417    -383.288
  H     -265.564     -67.178    -380.766
  H     -265.460     -70.227    -381.211
  H     -264.596     -70.362    -378.953
  H     -262.926     -68.135    -379.238
  H     -261.499     -69.403    -380.788
  H     -262.046     -70.451    -379.472
  P     -265.994     -69.023    -377.136
  C     -268.252     -68.314    -376.017
  O     -267.450     -68.359    -377.177
  O     -265.276     -68.242    -375.929
  O     -265.935     -70.510    -376.978
  H     -265.186     -67.292    -376.100
  H     -269.027     -67.548    -376.154
  H     -267.665     -68.060    -375.132
  H     -268.742     -69.283    -375.870
  H     -264.436     -73.127    -384.360
  H     -264.477     -72.879    -382.630
  H     -263.221     -73.864    -383.343

 3  4  5  6  7  8  9  10  11  12  13  24  28  29  30  31  32 0
 6-311+G(2d,p)
 ****
 33  34 0
 6-311+G(2d,p)
 ****
 1  2  14  15  16  17  18  19  20  21  22  23  25  26  27 0
 3-21G
 ****
 35  36  37  38  39  40  41  42  43  44  45 0
 3-21G
 ****


