%nproc=1
%NoSave
%Mem=1900MB
#P OB98/GEN NMR

erre ene a

0 1
  C      136.684    -513.431    -126.068
  O      136.969    -513.407    -124.686
  H      137.469    -513.995    -126.580
  H      136.667    -512.413    -126.467
  H      135.724    -513.919    -126.251
  P      135.908    -512.658    -123.743
  C      135.186    -514.712    -122.320
  O      134.826    -513.766    -123.319
  C      134.317    -514.508    -121.081
  O      134.391    -513.127    -120.663
  C      132.836    -514.791    -121.304
  O      132.550    -516.178    -121.277
  C      132.211    -514.020    -120.147
  O      132.232    -514.782    -118.933
  C      133.138    -512.804    -120.020
  N      130.143    -508.776    -119.142
  C      130.590    -509.761    -118.334
  N      131.405    -510.793    -118.642
  C      131.766    -510.737    -119.937
  C      131.384    -509.799    -120.878
  C      130.532    -508.774    -120.437
  N      130.047    -507.791    -121.267
  N      131.924    -510.105    -122.112
  C      132.629    -511.201    -121.914
  N      132.565    -511.615    -120.615
  O      135.112    -511.724    -124.773
  O      136.495    -511.877    -122.617
  H      131.881    -514.200    -118.232
  H      135.508    -510.833    -124.778
  H      130.245    -509.719    -117.305
  H      133.186    -511.732    -122.677
  H      133.365    -512.566    -118.974
  H      131.170    -513.768    -120.355
  H      132.502    -514.344    -122.248
  H      134.714    -515.131    -120.271
  H      136.237    -514.569    -122.050
  H      135.054    -515.721    -122.723
  H      129.420    -507.102    -120.887
  H      130.246    -507.843    -122.257
  P      131.074    -516.664    -121.661
  C      130.844    -517.079    -124.216
  O      130.764    -516.148    -123.148
  O      130.136    -515.749    -120.739
  O      130.819    -518.117    -121.445
  H      129.839    -516.246    -119.956
  H      130.612    -516.586    -125.137
  H      130.146    -517.873    -124.050
  H      131.835    -517.480    -124.266

 6  7  8  9  10  11  12  13  14  15  25  28  32  33  34  35 0
 6-311+G(2d,p)
 ****
 36  37  40 0
 6-311+G(2d,p)
 ****
 1  2  3  4  5  16  17  18  19  20  21  22  23  24 0
 3-21G
 ****
 26  27  29  30  31  38  39 41  42  43  44  45  46  47  48 0
 3-21G
 ****


