%nproc=1
%NoSave
%Mem=1900MB
#P OB98/GEN NMR

erre ene a

0 1
  C       19.833    -242.664      16.930
  O       20.679    -242.070      17.896
  P       21.417    -240.702      17.470
  C       22.862    -240.012      15.408
  O       22.313    -241.060      16.184
  C       24.366    -240.231      15.240
  O       24.622    -241.459      14.533
  C       25.079    -239.134      14.461
  O       25.362    -238.026      15.303
  C       26.323    -239.866      13.971
  O       27.326    -239.926      15.009
  C       25.772    -241.265      13.662
  N       27.340    -242.838       9.121
  C       28.058    -242.622      10.281
  N       29.375    -242.915      10.235
  N       27.530    -242.172      11.391
  C       26.206    -241.908      11.282
  C       25.393    -242.065      10.183
  C       25.977    -242.615       8.984
  O       25.368    -242.914       7.956
  N       24.103    -241.672      10.452
  C       24.135    -241.315      11.721
  N       25.382    -241.459      12.277
  O       22.488    -240.492      18.640
  O       20.516    -239.523      17.287
  H       27.540    -239.026      15.302
  H       22.152    -239.850      19.300
  H       27.796    -243.201       8.300
  H       23.286    -240.963      12.279
  H       26.497    -242.059      13.903
  H       26.790    -239.365      13.116
  H       29.860    -243.242       9.416
  H       24.477    -238.822      13.597
  H       29.922    -242.762      11.082
  H       24.807    -240.336      16.244
  H       22.694    -239.054      15.913
  H       22.366    -239.986      14.430
  P       25.031    -236.566      14.730
  C       25.602    -235.250      12.562
  O       25.844    -236.400      13.356
  O       25.802    -235.591      15.752
  O       23.580    -236.233      14.662
  H       25.278    -234.776      15.883
  H       26.520    -235.007      12.014
  H       25.313    -234.388      13.171
  H       24.803    -235.471      11.854
  H       19.406    -243.559      17.332
  H       20.402    -242.901      16.055
  H       19.051    -241.981      16.672

 3  4  5  6  7  8  9  10  11  12  23  26  30  31 0
 6-311+G(2d,p)
 ****
 33  35  36  37  38 0
 6-311+G(2d,p)
 ****
 1  2  13  14  15  16  17  18  19  20  21  22  24  25 0
 3-21G
 ****
 27  28  29  32  34  39  40  41  42  43  44  45  46  47  48  49 0
 3-21G
 ****


