%nproc=1
%NoSave
%Mem=1900MB
#P OB98/GEN NMR

erre ene a

0 1
  C       32.062     984.074     -35.730
  O       32.152     982.972     -34.852
  H       33.066     984.479     -35.883
  H       31.438     984.860     -35.293
  H       31.659     983.766     -36.694
  P       30.814     982.207     -34.414
  C       32.102     980.023     -34.838
  O       30.908     980.755     -35.108
  C       32.042     978.627     -35.460
  O       30.964     977.869     -34.856
  C       31.798     978.635     -36.980
  O       32.713     977.743     -37.621
  C       30.384     978.102     -37.119
  O       30.129     977.512     -38.388
  C       30.311     977.158     -35.922
  N       28.942     976.780     -35.596
  C       28.285     975.959     -36.518
  O       28.872     975.585     -37.542
  N       26.978     975.624     -36.293
  C       26.353     976.108     -35.257
  N       25.052     975.756     -35.115
  C       26.997     976.989     -34.269
  C       28.286     977.278     -34.497
  O       29.550     982.953     -34.682
  O       31.027     981.867     -32.862
  H       30.518     976.604     -38.397
  H       30.145     981.721     -32.445
  H       26.448     977.379     -33.429
  H       28.845     977.923     -33.821
  H       30.888     976.230     -36.115
  H       29.668     978.922     -36.984
  H       31.897     979.625     -37.422
  H       32.964     978.094     -35.207
  H       24.645     975.159     -35.818
  H       32.234     979.950     -33.754
  H       24.465     976.087     -34.360
  H       32.950     980.569     -35.271
  P       33.890     978.430     -38.469
  C       35.392     976.379     -37.937
  O       35.287     977.791     -38.000
  O       33.928     979.932     -37.898
  O       33.646     978.405     -39.953
  H       33.597     980.546     -38.594
  H       36.375     976.109     -37.611
  H       35.211     975.964     -38.907
  H       34.669     975.998     -37.246

 6  7  8  9  10  11  12  13  14  15  16  26  30  31  32  33  35 0
 6-311+G(2d,p)
 ****
 37  38 0
 6-311+G(2d,p)
 ****
 1  2  3  4  5  17  18  19  20  21  22  23  24  25 0
 3-21G
 ****
 27  28  29  34  36  39  40  41  42  43  44  45  46 0
 3-21G
 ****


