%nproc=1
%NoSave
%Mem=1900MB
#P OB98/GEN NMR

erre ene a

0 1
  C     -434.037    1042.473    -711.699
  O     -434.866    1041.629    -710.923
  H     -433.534    1043.179    -711.048
  H     -434.660    1043.041    -712.409
  H     -433.291    1041.893    -712.248
  P     -435.561    1040.401    -711.674
  C     -434.235    1038.622    -710.270
  O     -435.480    1039.153    -710.661
  C     -434.259    1038.225    -708.791
  O     -434.154    1039.410    -707.975
  C     -435.525    1037.465    -708.368
  O     -435.179    1036.483    -707.391
  C     -436.385    1038.547    -707.717
  O     -437.332    1038.008    -706.805
  C     -435.304    1039.437    -707.073
  N     -435.749    1040.798    -706.822
  C     -436.212    1041.071    -705.509
  O     -436.217    1040.169    -704.666
  N     -436.703    1042.326    -705.232
  C     -436.777    1043.213    -706.156
  N     -437.265    1044.432    -705.822
  C     -436.338    1042.969    -707.552
  C     -435.832    1041.748    -707.814
  O     -434.481    1040.050    -712.800
  O     -436.933    1040.706    -712.209
  H     -436.828    1037.536    -706.100
  H     -433.570    1040.019    -712.463
  H     -436.435    1043.753    -708.311
  H     -435.498    1041.477    -708.794
  H     -434.963    1038.979    -706.133
  H     -436.921    1039.114    -708.489
  H     -436.029    1036.986    -709.229
  H     -433.360    1037.603    -708.579
  H     -437.569    1044.558    -704.859
  H     -433.436    1039.356    -710.424
  H     -437.421    1045.176    -706.478
  H     -434.020    1037.741    -710.900
  P     -436.283    1035.430    -706.896
  C     -435.229    1033.142    -707.509
  O     -435.543    1034.054    -706.483
  O     -437.458    1035.280    -707.804
  O     -436.724    1036.044    -705.478
  H     -437.698    1035.949    -705.411
  H     -434.746    1032.285    -707.089
  H     -434.575    1033.610    -708.214
  H     -436.128    1032.838    -708.004

 6  7  8  9  10  11  12  13  14  15  16  26  30  31  32  33  35 0
 6-311+G(2d,p)
 ****
 37  38 0
 6-311+G(2d,p)
 ****
 1  2  3  4  5  17  18  19  20  21  22  23  24  25 0
 3-21G
 ****
 27  28  29  34  36  39  40  41  42  43  44  45  46 0
 3-21G
 ****


