%nproc=1
%NoSave
%Mem=1900MB
#P OB98/GEN NMR

erre ene a

0 1
  C      129.532     428.900     333.940
  O      128.123     429.026     333.900
  H      129.929     429.589     334.688
  H      129.963     429.143     332.964
  H      129.817     427.880     334.221
  P      127.363     428.150     332.787
  C      128.976     428.919     330.882
  O      127.662     428.950     331.425
  C      128.952     429.422     329.446
  O      130.279     429.415     328.882
  C      128.104     428.575     328.500
  O      126.714     428.837     328.622
  C      128.649     429.038     327.161
  O      128.120     430.338     326.837
  C      130.161     429.112     327.464
  N      130.878     427.875     327.146
  C      131.169     427.643     325.790
  O      130.818     428.458     324.926
  N      131.818     426.481     325.439
  C      132.160     425.625     326.360
  N      132.783     424.488     325.953
  C      131.891     425.837     327.791
  C      131.258     426.964     328.111
  O      125.815     428.478     333.045
  O      127.691     426.693     332.752
  H      128.564     430.627     326.024
  H      125.265     428.082     332.322
  H      132.180     425.094     328.517
  H      131.017     427.183     329.146
  H      130.634     429.944     326.910
  H      128.384     428.372     326.338
  H      128.318     427.507     328.617
  H      128.607     430.471     329.463
  H      132.905     424.350     324.953
  H      129.348     427.884     330.916
  H      132.927     423.696     326.560
  H      129.638     429.555     331.479
  P      125.705     427.614     328.332
  C      125.655     428.254     325.810
  O      124.905     427.981     326.989
  O      124.593     427.787     329.477
  O      126.331     426.253     328.359
  H      124.305     426.929     329.826
  H      124.986     428.480     325.006
  H      126.243     427.397     325.555
  H      126.300     429.090     325.983

 6  7  8  9  10  11  12  13  14  15  16  26  30  31  32  33  35 0
 6-311+G(2d,p)
 ****
 37  38 0
 6-311+G(2d,p)
 ****
 1  2  3  4  5  17  18  19  20  21  22  23  24  25 0
 3-21G
 ****
 27  28  29  34  36  39  40  41  42  43  44  45  46 0
 3-21G
 ****


