%nproc=1
%NoSave
%Mem=1900MB
#P OB98/GEN NMR

erre ene a

0 1
  C     -127.301    -647.580     203.329
  O     -127.298    -646.203     203.614
  P     -128.532    -645.259     203.187
  C     -130.290    -646.060     204.896
  O     -129.362    -645.038     204.544
  C     -130.920    -645.773     206.242
  O     -129.892    -645.853     207.256
  C     -131.537    -644.385     206.406
  O     -132.885    -644.272     205.913
  C     -131.550    -644.247     207.922
  O     -132.659    -644.988     208.469
  C     -130.217    -644.908     208.308
  N     -128.077    -641.501     211.471
  C     -129.132    -642.344     211.620
  N     -129.648    -643.209     210.731
  C     -128.958    -643.180     209.577
  C     -127.839    -642.386     209.289
  C     -127.412    -641.512     210.285
  N     -126.326    -640.679     210.142
  N     -127.404    -642.647     208.000
  C     -128.207    -643.575     207.547
  N     -129.159    -643.953     208.468
  O     -129.310    -645.756     202.020
  O     -127.865    -643.837     202.934
  H     -132.505    -645.056     209.433
  H     -128.473    -643.267     202.426
  H     -129.628    -642.319     212.583
  H     -128.153    -644.015     206.561
  H     -130.299    -645.486     209.243
  H     -131.670    -643.211     208.250
  H     -130.897    -643.599     205.976
  H     -131.669    -646.557     206.454
  H     -129.749    -647.012     204.940
  H     -126.000    -640.172     210.975
  H     -125.731    -640.805     209.340
  H     -131.047    -646.147     204.107
  P     -133.188    -643.048     204.926
  C     -132.480    -644.179     202.664
  O     -133.516    -643.725     203.500
  O     -132.137    -641.989     204.888
  O     -134.617    -642.531     205.424
  H     -135.365    -643.153     205.292
  H     -132.920    -644.745     201.849
  H     -131.798    -644.835     203.206
  H     -131.928    -643.328     202.244
  H     -126.397    -648.022     203.693
  H     -127.368    -647.725     202.271
  H     -128.141    -648.041     203.806

 3  4  5  6  7  8  9  10  11  12  22  25  29  30  31  32 0
 6-311+G(2d,p)
 ****
 33  36  37 0
 6-311+G(2d,p)
 ****
 1  2  13  14  15  16  17  18  19  20  21  23  24  26 0
 3-21G
 ****
 27  28  34  35  38  39  40  41  42  43  44  45  46  47  48 0
 3-21G
 ****


