%nproc=1
%NoSave
%Mem=1900MB
#P OB98/GEN NMR

erre ene a

0 1
  C      333.963    -546.328    -495.741
  O      332.735    -546.064    -496.396
  H      333.947    -547.355    -495.365
  H      334.090    -545.645    -494.893
  H      334.797    -546.216    -496.441
  P      332.537    -544.574    -496.963
  C      331.435    -545.771    -498.979
  O      331.391    -544.670    -498.082
  C      330.407    -546.825    -498.578
  O      330.812    -547.514    -497.369
  C      329.006    -546.273    -498.316
  O      328.288    -546.130    -499.530
  C      328.424    -547.350    -497.411
  O      327.973    -548.482    -498.183
  C      329.635    -547.737    -496.544
  N      332.493    -547.078    -492.436
  C      332.625    -547.971    -493.474
  N      333.650    -548.848    -493.401
  N      331.809    -548.023    -494.498
  C      330.793    -547.131    -494.413
  C      330.558    -546.196    -493.435
  C      331.496    -546.117    -492.343
  O      331.487    -545.290    -491.428
  N      329.436    -545.453    -493.719
  C      328.969    -545.978    -494.842
  N      329.764    -546.996    -495.307
  O      333.870    -544.326    -497.821
  O      332.355    -543.514    -495.934
  H      327.740    -549.206    -497.578
  H      334.146    -543.397    -497.703
  H      333.172    -547.067    -491.692
  H      328.088    -545.633    -495.363
  H      329.625    -548.797    -496.270
  H      327.558    -546.984    -496.857
  H      334.127    -549.053    -492.528
  H      329.060    -545.326    -497.767
  H      333.695    -549.557    -494.125
  H      330.377    -547.581    -499.378
  H      332.443    -546.215    -498.940
  H      331.235    -545.425    -500.000
  P      327.456    -544.776    -499.754
  C      327.726    -544.653    -502.335
  O      326.837    -544.810    -501.237
  O      328.605    -543.658    -499.862
  O      326.483    -544.448    -498.659
  H      328.632    -543.137    -499.026
  H      327.174    -544.697    -503.250
  H      328.454    -545.437    -502.320
  H      328.220    -543.707    -502.262

 6  7  8  9  10  11  12  13  14  15  26  29  33  34 0
 6-311+G(2d,p)
 ****
 36  38  39  40  41 0
 6-311+G(2d,p)
 ****
 1  2  3  4  5  16  17  18  19  20  21  22  23  24  25 0
 3-21G
 ****
 27  28  30  31  32  35  37  42  43  44  45  46  47 0
 3-21G
 ****
 48  49 0
 3-21G
 ****


