%nproc=1
%NoSave
%Mem=1900MB
#P OB98/GEN NMR

erre ene a

0 1
  C     -247.800      70.003      13.263
  O     -248.326      69.926      11.948
  P     -249.084      68.613      11.444
  C     -246.933      67.869      10.134
  O     -247.991      67.537      11.005
  C     -245.795      66.857      10.324
  O     -245.365      66.846      11.699
  C     -246.236      65.443       9.955
  O     -245.891      65.145       8.612
  C     -245.501      64.592      10.972
  O     -244.141      64.371      10.554
  C     -245.535      65.502      12.223
  N     -246.750      65.488      13.061
  C     -246.890      64.525      14.056
  O     -246.036      63.681      14.314
  N     -248.078      64.549      14.743
  C     -249.087      65.450      14.561
  O     -250.222      65.318      15.001
  C     -248.766      66.591      13.699
  C     -247.645      66.547      12.981
  O     -249.723      69.077      10.053
  O     -250.112      68.065      12.378
  H     -243.772      63.681      11.136
  H     -250.663      69.313      10.168
  H     -248.243      63.768      15.371
  H     -249.480      67.402      13.633
  H     -247.404      67.363      12.304
  H     -244.686      65.292      12.883
  H     -245.954      63.607      11.065
  H     -247.316      65.327      10.117
  H     -244.942      67.163       9.706
  H     -246.579      68.885      10.342
  H     -247.282      67.856       9.096
  P     -246.737      64.054       7.802
  C     -244.910      62.276       8.068
  O     -246.244      62.637       8.365
  O     -246.715      64.197       6.316
  O     -248.215      64.223       8.395
  H     -248.750      64.786       7.799
  H     -244.649      61.389       8.649
  H     -244.226      63.089       8.326
  H     -244.822      62.039       7.003
  H     -247.334      70.955      13.405
  H     -247.077      69.227      13.404
  H     -248.593      69.884      13.972

 3  4  5  6  7  8  9  10  11  12  13  23  28  29  30  31  32 0
 6-311+G(2d,p)
 ****
 33  34 0
 6-311+G(2d,p)
 ****
 1  2  14  15  16  17  18  19  20  21  22  24  25  26  27 0
 3-21G
 ****
 35  36  37  38  39  40  41  42  43  44  45 0
 3-21G
 ****


