%nproc=1
%NoSave
%Mem=1900MB
#P OB98/GEN NMR

erre ene a

0 1
  C      248.179     154.296    -316.177
  O      248.788     154.502    -314.921
  H      248.957     154.277    -316.948
  H      247.486     155.113    -316.399
  H      247.646     153.342    -316.191
  P      247.820     154.520    -313.643
  C      248.170     157.075    -313.299
  O      247.248     156.018    -313.533
  C      248.246     157.371    -311.804
  O      249.290     158.342    -311.557
  C      246.972     157.986    -311.224
  O      245.978     157.005    -310.980
  C      247.510     158.634    -309.955
  O      247.612     157.691    -308.881
  C      248.911     159.095    -310.382
  N      248.550     163.738    -308.309
  C      248.532     162.503    -307.764
  N      248.653     161.308    -308.387
  C      248.818     161.484    -309.710
  C      248.851     162.682    -310.408
  C      248.711     163.855    -309.647
  N      248.697     165.113    -310.205
  N      248.991     162.449    -311.764
  C      249.050     161.139    -311.879
  N      248.957     160.516    -310.667
  O      248.842     154.413    -312.414
  O      246.789     153.441    -313.609
  H      248.125     158.130    -308.171
  H      248.932     153.481    -312.143
  H      248.397     162.464    -306.686
  H      249.148     160.595    -312.814
  H      249.666     158.893    -309.613
  H      246.859     159.443    -309.615
  H      246.591     158.771    -311.888
  H      248.508     156.448    -311.275
  H      247.833     157.974    -313.830
  H      249.152     156.781    -313.682
  H      248.570     165.909    -309.602
  H      248.709     165.203    -311.213
  P      244.438     157.435    -311.101
  C      244.015     157.544    -308.535
  O      244.053     158.245    -309.769
  O      243.660     156.046    -310.938
  O      244.081     158.130    -312.372
  H      243.384     155.706    -311.812
  H      243.745     158.219    -307.750
  H      244.979     157.128    -308.331
  H      243.292     156.757    -308.594

 6  7  8  9  10  11  12  13  14  15  25  28  32  33  34  35 0
 6-311+G(2d,p)
 ****
 36  37  40 0
 6-311+G(2d,p)
 ****
 1  2  3  4  5  16  17  18  19  20  21  22  23  24 0
 3-21G
 ****
 26  27  29  30  31  38  39 41  42  43  44  45  46  47  48 0
 3-21G
 ****


