%nproc=1
%NoSave
%Mem=1900MB
#P OB98/GEN NMR

erre ene a

0 1
  C     -471.616    -305.182      25.815
  O     -472.957    -305.497      25.407
  P     -473.980    -305.902      26.584
  C     -474.431    -307.999      28.061
  O     -473.641    -307.415      27.032
  C     -474.057    -309.462      28.310
  O     -474.316    -310.227      27.108
  C     -472.595    -309.703      28.689
  O     -472.529    -310.758      29.657
  C     -471.982    -310.217      27.403
  O     -470.794    -310.979      27.635
  C     -473.152    -311.025      26.843
  N     -471.632    -314.395      23.373
  C     -471.718    -314.518      24.752
  N     -471.323    -315.696      25.278
  N     -472.155    -313.568      25.540
  C     -472.550    -312.454      24.870
  C     -472.527    -312.210      23.522
  C     -472.000    -313.257      22.661
  O     -471.850    -313.189      21.442
  N     -473.012    -310.959      23.220
  C     -473.320    -310.437      24.396
  N     -473.051    -311.309      25.430
  O     -475.383    -306.025      25.818
  O     -474.043    -304.905      27.695
  H     -470.957    -311.531      28.424
  H     -476.031    -305.441      26.233
  H     -471.270    -315.143      22.817
  H     -473.710    -309.445      24.558
  H     -473.267    -311.978      27.375
  H     -471.721    -309.374      26.750
  H     -471.033    -316.489      24.718
  H     -472.068    -308.813      29.075
  H     -471.413    -315.826      26.281
  H     -474.722    -309.854      29.094
  H     -475.489    -307.929      27.788
  H     -474.294    -307.409      28.978
  P     -472.171    -310.333      31.165
  C     -470.016    -309.474      32.342
  O     -470.638    -309.867      31.132
  O     -472.125    -311.729      31.941
  O     -473.141    -309.369      31.774
  H     -472.328    -311.602      32.884
  H     -470.613    -309.726      33.216
  H     -469.847    -308.390      32.316
  H     -469.043    -309.969      32.410
  H     -471.031    -304.930      24.955
  H     -471.184    -306.030      26.304
  H     -471.634    -304.352      26.490

 3  4  5  6  7  8  9  10  11  12  23  26  30  31  33  0
 6-311+G(2d,p)
 ****
 35  36  37  38 0
 6-311+G(2d,p)
 ****
 1  2  13  14  15  16  17  18  19  20  21  22  24  25  27  28  29 0
 3-21G
 ****
 32  34  39  40  41  42  43  44  45  46  47  48  49 0
 3-21G
 ****


