%nproc=1
%NoSave
%Mem=1900MB
#P OB98/GEN NMR

erre ene a

0 1
  C       54.874    -135.836     297.406
  O       55.233    -136.937     296.579
  P       55.830    -136.610     295.123
  C       54.295    -137.487     293.219
  O       54.552    -136.450     294.159
  C       53.591    -138.660     293.893
  O       52.497    -138.181     294.704
  C       52.973    -139.669     292.928
  O       53.929    -140.597     292.439
  C       51.979    -140.370     293.845
  O       52.657    -141.333     294.668
  C       51.464    -139.209     294.709
  N       46.364    -139.351     295.095
  C       47.333    -140.103     295.673
  N       48.675    -140.012     295.503
  C       48.978    -139.044     294.621
  C       48.096    -138.230     293.932
  C       46.726    -138.402     294.202
  N       45.745    -137.619     293.640
  N       48.775    -137.364     293.103
  C       50.048    -137.640     293.298
  N       50.223    -138.642     294.218
  O       56.467    -138.008     294.673
  O       56.821    -135.496     295.084
  H       51.982    -141.729     295.260
  H       57.156    -137.854     294.000
  H       46.991    -140.877     296.358
  H       50.877    -137.134     292.815
  H       51.302    -139.505     295.751
  H       51.205    -140.914     293.293
  H       52.437    -139.164     292.116
  H       54.308    -139.157     294.558
  H       55.246    -137.840     292.803
  H       44.809    -137.679     294.029
  H       46.031    -136.782     293.138
  H       53.683    -137.091     292.407
  P       53.484    -141.504     291.193
  C       53.058    -144.029     291.668
  O       52.612    -142.689     291.811
  O       54.849    -142.218     290.753
  O       52.861    -140.735     290.069
  H       54.821    -142.462     289.812
  H       52.540    -144.655     292.388
  H       54.138    -144.107     291.844
  H       52.823    -144.385     290.656
  H       54.494    -136.199     298.338
  H       54.122    -135.253     296.917
  H       55.736    -135.228     297.585

 3  4  5  6  7  8  9  10  11  12  22  25  29  30  31  32 0
 6-311+G(2d,p)
 ****
 33  36  37 0
 6-311+G(2d,p)
 ****
 1  2  13  14  15  16  17  18  19  20  21  23  24  26 0
 3-21G
 ****
 27  28  34  35  38  39  40  41  42  43  44  45  46  47  48 0
 3-21G
 ****


