%nproc=1
%NoSave
%Mem=1900MB
#P OB98/GEN NMR

erre ene a

0 1
  C     -283.917       9.378     156.463
  O     -284.180       9.497     157.868
  P     -284.100      10.890     158.663
  C     -282.910      10.077     160.802
  O     -284.107      10.601     160.243
  C     -283.174       9.344     162.123
  O     -283.694      10.278     163.119
  C     -284.178       8.182     162.017
  O     -283.692       7.143     162.875
  C     -285.449       8.812     162.567
  O     -286.423       7.869     162.972
  C     -284.853       9.648     163.705
  N     -285.747      10.646     164.281
  C     -286.249      10.405     165.568
  O     -285.996       9.364     166.171
  N     -287.056      11.357     166.145
  C     -287.344      12.442     165.501
  N     -288.142      13.347     166.135
  C     -286.857      12.727     164.143
  C     -286.070      11.798     163.601
  O     -285.135      11.882     158.238
  O     -282.629      11.458     158.383
  H     -282.669      12.430     158.319
  H     -287.096       8.339     163.496
  H     -287.117      13.650     163.642
  H     -285.645      11.947     162.614
  H     -284.491       8.979     164.495
  H     -285.894       9.438     161.788
  H     -284.281       7.783     161.004
  H     -282.212       8.982     162.507
  H     -288.449      13.119     167.074
  H     -282.222      10.906     160.990
  H     -288.424      14.226     165.731
  H     -282.443       9.401     160.078
  P     -282.941       5.877     162.240
  C     -284.777       4.170     162.954
  O     -283.425       4.575     163.039
  O     -281.447       6.066     162.797
  O     -282.926       5.794     160.749
  H     -280.824       5.625     162.193
  H     -284.811       3.088     162.810
  H     -285.302       4.649     162.125
  H     -285.284       4.420     163.890
  H     -284.033       8.357     156.164
  H     -282.917       9.698     156.259
  H     -284.605       9.990     155.918

 3  4  5  6  7  8  9  10  11  12  13  24  27  28  29  30  32 0
 6-311+G(2d,p)
 ****
 34  35 0
 6-311+G(2d,p)
 ****
 1  2  14  15  16  17  18  19  20  21  22  23  25  26 0
 3-21G
 ****
 31  33  36  37  38  39  40  41  42  43  44  45  46 0
 3-21G
 ****


