%nproc=1
%NoSave
%Mem=1900MB
#P OB98/GEN NMR

erre ene a

0 1
  C      -54.805      98.451     324.079
  O      -54.261      98.956     325.279
  H      -54.012      97.941     323.527
  H      -55.187      99.272     323.471
  H      -55.607      97.737     324.281
  P      -55.256      99.462     326.427
  C      -54.184     101.720     327.078
  O      -54.391     100.361     327.435
  C      -53.173     102.383     328.021
  O      -53.719     102.382     329.369
  C      -51.856     101.605     328.073
  O      -50.747     102.448     328.384
  C      -52.082     100.642     329.227
  O      -50.863     100.169     329.808
  C      -52.925     101.495     330.173
  N      -53.315      98.709     334.429
  C      -52.184      99.183     333.793
  N      -50.994      98.874     334.377
  N      -52.206      99.874     332.682
  C      -53.452     100.041     332.180
  C      -54.650      99.604     332.703
  C      -54.608      98.869     333.950
  O      -55.580      98.405     334.542
  N      -55.706      99.956     331.904
  C      -55.153     100.607     330.898
  N      -53.793     100.704     331.034
  O      -55.536      98.146     327.292
  O      -56.531     100.087     325.945
  H      -51.097      99.680     330.619
  H      -56.370      98.235     327.786
  H      -53.240      98.207     335.294
  H      -55.693     101.036     330.064
  H      -52.287     102.104     330.819
  H      -52.614      99.766     328.847
  H      -50.927      98.189     335.109
  H      -51.650     101.068     327.151
  H      -50.169      98.942     333.773
  H      -53.029     103.436     327.741
  H      -55.155     102.220     327.138
  H      -53.846     101.792     326.041
  P      -49.365     102.201     327.610
  C      -47.910     102.759     329.749
  O      -48.173     102.945     328.376
  O      -49.527     103.036     326.259
  O      -49.051     100.759     327.343
  H      -49.530     102.437     325.488
  H      -47.070     103.357     330.035
  H      -47.693     101.728     329.934
  H      -48.767     103.051     330.319

 6  7  8  9  10  11  12  13  14  15  26  29  33  34 0
 6-311+G(2d,p)
 ****
 36  38  39  40  41 0
 6-311+G(2d,p)
 ****
 1  2  3  4  5  16  17  18  19  20  21  22  23  24  25 0
 3-21G
 ****
 27  28  30  31  32  35  37  42  43  44  45  46  47 0
 3-21G
 ****
 48  49 0
 3-21G
 ****


