%nproc=1
%NoSave
%Mem=1900MB
#P OB98/GEN NMR

erre ene a

0 1
  C     -152.682     834.374     482.774
  O     -154.025     834.663     482.464
  P     -155.230     833.796     483.067
  C     -155.407     835.263     485.177
  O     -155.160     833.953     484.669
  C     -156.397     835.199     486.348
  O     -157.723     834.872     485.814
  C     -156.031     834.126     487.392
  O     -155.965     834.606     488.737
  C     -157.061     833.038     487.136
  O     -157.253     832.160     488.228
  C     -158.271     833.854     486.683
  N     -159.283     833.041     486.020
  C     -160.376     832.638     486.782
  O     -160.549     832.930     487.964
  N     -161.272     831.817     486.155
  C     -161.129     831.277     484.913
  O     -161.925     830.464     484.457
  C     -159.938     831.706     484.166
  C     -159.095     832.571     484.737
  O     -155.294     832.381     482.598
  O     -156.521     834.665     482.702
  H     -156.497     831.548     488.263
  H     -156.529     835.565     483.076
  H     -162.069     831.518     486.694
  H     -159.790     831.284     483.183
  H     -158.206     832.911     484.207
  H     -158.737     834.366     487.521
  H     -156.699     832.429     486.297
  H     -155.020     833.724     487.204
  H     -156.443     836.197     486.800
  H     -155.825     835.879     484.388
  H     -154.460     835.723     485.495
  P     -154.781     834.294     489.772
  C     -153.826     836.692     490.066
  O     -153.635     835.385     489.568
  O     -154.307     832.874     489.778
  O     -155.411     834.685     491.188
  H     -155.004     834.145     491.885
  H     -153.263     837.397     489.447
  H     -153.451     836.743     491.092
  H     -154.885     836.979     490.046
  H     -152.042     835.069     482.271
  H     -152.449     833.379     482.456
  H     -152.535     834.455     483.831

 3  4  5  6  7  8  9  10  11  12  13  23  28  29  30  31  32 0
 6-311+G(2d,p)
 ****
 33  34 0
 6-311+G(2d,p)
 ****
 1  2  14  15  16  17  18  19  20  21  22  24  25  26  27 0
 3-21G
 ****
 35  36  37  38  39  40  41  42  43  44  45 0
 3-21G
 ****


