%nproc=1
%NoSave
%Mem=1900MB
#P OB98/GEN NMR

erre ene a

0 1
  C      -80.514    -195.481     190.240
  O      -80.936    -196.765     189.819
  H      -79.459    -195.354     189.971
  H      -80.607    -195.394     191.324
  H      -81.095    -194.700     189.745
  P      -82.482    -197.163     189.962
  C      -82.512    -198.385     187.689
  O      -82.718    -198.496     189.090
  C      -82.508    -199.775     187.033
  O      -81.284    -200.459     187.406
  C      -83.692    -200.663     187.452
  O      -84.119    -201.438     186.331
  C      -83.091    -201.569     188.509
  O      -83.788    -202.812     188.617
  C      -81.649    -201.717     188.017
  N      -79.063    -205.457     190.232
  C      -79.828    -205.462     189.085
  N      -79.937    -206.639     188.431
  N      -80.437    -204.405     188.613
  C      -80.217    -203.283     189.350
  C      -79.485    -203.148     190.504
  C      -78.834    -204.329     191.026
  O      -78.158    -204.392     192.054
  N      -79.522    -201.854     190.974
  C      -80.278    -201.209     190.101
  N      -80.737    -202.036     189.105
  O      -83.446    -196.052     189.677
  O      -82.620    -197.688     191.467
  H      -83.517    -203.216     189.470
  H      -83.066    -197.028     192.027
  H      -78.624    -206.300     190.559
  H      -80.528    -200.158     190.148
  H      -81.543    -202.513     187.262
  H      -83.122    -201.070     189.488
  H      -79.476    -207.488     188.726
  H      -84.529    -200.077     187.836
  H      -80.471    -206.667     187.567
  H      -82.487    -199.646     185.945
  H      -81.547    -197.895     187.517
  H      -83.309    -197.768     187.252
  P      -85.439    -200.992     185.533
  C      -84.269    -200.966     183.239
  O      -85.330    -201.514     184.016
  O      -85.815    -199.553     185.673
  O      -86.575    -201.944     186.151
  H      -87.416    -201.457     186.178
  H      -84.295    -201.384     182.254
  H      -83.332    -201.199     183.700
  H      -84.383    -199.904     183.179

 6  7  8  9  10  11  12  13  14  15  26  29  33  34 0
 6-311+G(2d,p)
 ****
 36  38  39  40  41 0
 6-311+G(2d,p)
 ****
 1  2  3  4  5  16  17  18  19  20  21  22  23  24  25 0
 3-21G
 ****
 27  28  30  31  32  35  37  42  43  44  45  46  47 0
 3-21G
 ****
 48  49 0
 3-21G
 ****


