%nproc=1
%NoSave
%Mem=1900MB
#P OB98/GEN NMR

erre ene a

0 1
  C     -195.532      30.258       2.414
  O     -195.237      30.695       1.102
  H     -195.816      29.203       2.375
  H     -196.367      30.828       2.830
  H     -194.655      30.361       3.058
  P     -194.796      32.220       0.894
  C     -192.593      31.649      -0.324
  O     -193.882      32.238      -0.424
  C     -191.989      31.475      -1.712
  O     -192.399      30.218      -2.285
  C     -192.399      32.560      -2.707
  O     -191.614      33.726      -2.520
  C     -192.115      31.850      -4.020
  O     -190.698      31.849      -4.276
  C     -192.600      30.423      -3.711
  N     -196.132      30.438      -7.345
  C     -194.804      30.814      -7.397
  N     -194.369      31.305      -8.578
  N     -193.986      30.736      -6.381
  C     -194.580      30.294      -5.249
  C     -195.888      29.907      -5.070
  C     -196.771      29.945      -6.216
  O     -197.950      29.604      -6.217
  N     -196.141      29.579      -3.762
  C     -194.977      29.730      -3.162
  N     -194.000      30.177      -4.018
  O     -194.167      32.897       2.074
  O     -196.137      32.953       0.424
  H     -190.441      32.779      -4.417
  H     -196.618      33.329       1.182
  H     -196.717      30.540      -8.158
  H     -194.788      29.529      -2.114
  H     -192.015      29.661      -4.238
  H     -192.600      32.318      -4.875
  H     -195.009      31.647      -9.283
  H     -193.471      32.775      -2.654
  H     -193.413      31.633      -8.622
  H     -190.898      31.437      -1.602
  H     -192.710      30.678       0.168
  H     -191.935      32.275       0.287
  P     -192.299      35.170      -2.365
  C     -190.839      35.706      -0.302
  O     -191.200      36.072      -1.626
  O     -193.638      35.159      -1.711
  O     -192.306      35.772      -3.842
  H     -193.111      35.531      -4.364
  H     -190.102      36.388       0.068
  H     -190.439      34.714      -0.303
  H     -191.704      35.741       0.326

 6  7  8  9  10  11  12  13  14  15  26  29  33  34 0
 6-311+G(2d,p)
 ****
 36  38  39  40  41 0
 6-311+G(2d,p)
 ****
 1  2  3  4  5  16  17  18  19  20  21  22  23  24  25 0
 3-21G
 ****
 27  28  30  31  32  35  37  42  43  44  45  46  47 0
 3-21G
 ****
 48  49 0
 3-21G
 ****


