%nproc=1
%NoSave
%Mem=1900MB
#P OB98/GEN NMR

erre ene a

0 1
  C     -438.622    -675.149    -186.575
  O     -437.230    -675.196    -186.829
  H     -439.157    -675.135    -187.530
  H     -438.871    -674.242    -186.022
  H     -438.943    -676.030    -186.009
  P     -436.222    -675.363    -185.602
  C     -434.849    -677.123    -186.896
  O     -434.823    -675.883    -186.203
  C     -433.431    -677.533    -187.275
  O     -432.899    -676.643    -188.281
  C     -432.437    -677.495    -186.116
  O     -432.629    -678.603    -185.253
  C     -431.121    -677.480    -186.876
  O     -430.771    -678.797    -187.327
  C     -431.467    -676.568    -188.078
  N     -431.032    -675.174    -187.881
  C     -429.845    -674.825    -188.501
  O     -429.165    -675.604    -189.178
  N     -429.414    -673.534    -188.291
  C     -430.009    -672.623    -187.467
  O     -429.484    -671.572    -187.117
  C     -431.307    -673.044    -186.896
  C     -431.739    -674.279    -187.120
  O     -436.733    -676.150    -184.441
  O     -435.891    -673.851    -185.183
  H     -436.412    -673.609    -184.393
  H     -431.366    -679.008    -188.069
  H     -428.529    -673.281    -188.699
  H     -431.850    -672.322    -186.275
  H     -432.682    -674.606    -186.683
  H     -430.999    -676.951    -189.000
  H     -430.288    -677.121    -186.261
  H     -432.552    -676.557    -185.562
  H     -433.478    -678.549    -187.718
  H     -435.452    -677.009    -187.803
  H     -435.315    -677.879    -186.244
  P     -432.699    -678.415    -183.670
  C     -434.667    -679.990    -183.189
  O     -433.274    -679.775    -183.031
  O     -433.390    -677.179    -183.209
  O     -431.159    -678.421    -183.193
  H     -430.988    -677.613    -182.660
  H     -434.939    -680.917    -182.730
  H     -434.907    -680.025    -184.231
  H     -435.206    -679.190    -182.725

 6  7  8  9  10  11  12  13  14  15  16  27  31  32  33  34  35 0
 6-311+G(2d,p)
 ****
 36  37 0
 6-311+G(2d,p)
 ****
 1  2  3  4  5  17  18  19  20  21  22  23  24  25 0
 3-21G
 ****
 26  28  29  30  38  39  40  41  42  43  44  45 0
 3-21G
 ****


