%nproc=1
%NoSave
%Mem=1900MB
#P OB98/GEN NMR

erre ene a

0 1
  C     -165.816     345.182     471.545
  O     -164.788     344.288     471.166
  H     -165.400     346.191     471.600
  H     -166.211     344.909     472.526
  H     -166.621     345.172     470.805
  P     -165.201     342.745     471.008
  C     -164.481     340.800     469.437
  O     -164.396     342.189     469.736
  C     -164.483     340.601     467.924
  O     -165.571     341.351     467.333
  C     -163.225     341.105     467.230
  O     -162.138     340.205     467.361
  C     -163.718     341.261     465.804
  O     -163.674     340.015     465.094
  C     -165.168     341.717     465.992
  N     -165.039     345.460     462.527
  C     -164.930     344.120     462.409
  N     -164.989     343.186     463.385
  C     -165.208     343.762     464.576
  C     -165.344     345.117     464.848
  C     -165.251     345.988     463.753
  N     -165.337     347.353     463.878
  N     -165.519     345.320     466.202
  C     -165.502     344.117     466.741
  N     -165.320     343.146     465.794
  O     -166.716     342.828     470.493
  O     -165.078     341.925     472.247
  H     -164.198     339.378     465.626
  H     -167.323     342.674     471.242
  H     -164.764     343.746     461.402
  H     -165.604     343.903     467.796
  H     -165.855     341.220     465.299
  H     -163.099     341.974     465.255
  H     -162.949     342.098     467.624
  H     -164.648     339.537     467.707
  H     -165.406     340.395     469.855
  H     -163.628     340.286     469.890
  H     -165.192     347.924     463.057
  H     -165.380     347.762     464.799
  P     -160.710     340.674     466.805
  C     -158.306     340.695     467.822
  O     -159.705     340.729     468.057
  O     -160.935     342.220     466.435
  O     -160.210     339.885     465.641
  H     -160.404     342.446     465.640
  H     -157.786     340.739     468.756
  H     -158.025     341.532     467.218
  H     -158.051     339.788     467.315

 6  7  8  9  10  11  12  13  14  15  25  28  32  33  34  35 0
 6-311+G(2d,p)
 ****
 36  37  40 0
 6-311+G(2d,p)
 ****
 1  2  3  4  5  16  17  18  19  20  21  22  23  24 0
 3-21G
 ****
 26  27  29  30  31  38  39 41  42  43  44  45  46  47  48 0
 3-21G
 ****


