%nproc=1
%NoSave
%Mem=1900MB
#P OB98/GEN NMR

erre ene a

0 1
  C       40.662     -54.673      33.108
  O       41.319     -55.914      32.961
  H       41.301     -53.889      32.692
  H       40.492     -54.458      34.166
  H       39.711     -54.670      32.570
  P       40.542     -57.254      33.371
  C       41.825     -57.519      35.589
  O       41.526     -58.089      34.321
  C       42.576     -58.531      36.450
  O       42.859     -57.971      37.751
  C       41.799     -59.817      36.711
  O       41.803     -60.649      35.569
  C       42.556     -60.359      37.913
  O       43.775     -61.001      37.508
  C       42.861     -59.062      38.699
  N       41.910     -58.820      39.785
  C       42.263     -59.325      41.032
  O       43.302     -59.946      41.239
  N       41.348     -59.129      42.034
  C       40.110     -58.574      41.885
  O       39.243     -58.618      42.752
  C       39.825     -57.993      40.566
  C       40.717     -58.153      39.586
  O       39.944     -58.027      32.244
  O       39.417     -56.738      34.389
  H       38.561     -56.682      33.922
  H       44.432     -60.290      37.377
  H       41.573     -59.533      42.931
  H       38.879     -57.486      40.426
  H       40.515     -57.759      38.597
  H       43.869     -59.105      39.132
  H       41.976     -61.097      38.471
  H       40.773     -59.580      37.017
  H       43.535     -58.750      35.961
  H       40.883     -57.251      36.081
  H       42.421     -56.613      35.444
  P       40.519     -61.516      35.172
  C       40.647     -63.137      37.152
  O       40.726     -63.000      35.740
  O       40.134     -61.453      33.731
  O       39.349     -60.935      36.101
  H       38.589     -60.689      35.539
  H       40.799     -64.162      37.420
  H       39.682     -62.820      37.488
  H       41.401     -62.533      37.612

 6  7  8  9  10  11  12  13  14  15  16  27  31  32  33  34  35 0
 6-311+G(2d,p)
 ****
 36  37 0
 6-311+G(2d,p)
 ****
 1  2  3  4  5  17  18  19  20  21  22  23  24  25 0
 3-21G
 ****
 26  28  29  30  38  39  40  41  42  43  44  45 0
 3-21G
 ****


