%nproc=1
%NoSave
%Mem=1900MB
#P OB98/GEN NMR

erre ene a

0 1
  C     -949.100    -568.379     546.007
  O     -949.843    -568.861     547.110
  H     -949.689    -568.514     545.095
  H     -948.164    -568.938     545.902
  H     -948.881    -567.309     546.136
  P     -949.136    -568.770     548.544
  C     -951.502    -568.333     549.508
  O     -950.289    -569.059     549.631
  C     -952.294    -568.384     550.828
  O     -953.258    -569.459     550.796
  C     -951.421    -568.603     552.063
  O     -950.856    -567.381     552.518
  C     -952.432    -569.177     553.052
  O     -953.227    -568.130     553.649
  C     -953.313    -570.058     552.136
  N     -954.181    -574.707     553.881
  C     -954.844    -573.533     554.117
  N     -955.878    -573.589     555.008
  N     -954.542    -572.388     553.565
  C     -953.469    -572.476     552.735
  C     -952.737    -573.599     552.409
  C     -953.107    -574.864     553.015
  O     -952.593    -575.960     552.801
  N     -951.742    -573.293     551.511
  C     -951.847    -571.994     551.321
  N     -952.875    -571.455     552.068
  O     -948.845    -567.207     548.730
  O     -947.885    -569.577     548.691
  H     -953.860    -568.522     554.283
  H     -948.046    -567.090     549.269
  H     -954.476    -575.568     554.332
  H     -951.217    -571.394     550.682
  H     -954.371    -570.060     552.442
  H     -951.962    -569.719     553.864
  H     -955.949    -574.331     555.705
  H     -950.639    -569.359     551.857
  H     -956.363    -572.726     555.198
  H     -952.849    -567.441     550.909
  H     -952.118    -568.784     548.715
  H     -951.278    -567.292     549.251
  P     -949.517    -567.474     553.421
  C     -948.704    -565.051     552.934
  O     -949.198    -565.982     553.907
  O     -948.365    -567.777     552.348
  O     -949.574    -568.503     554.510
  H     -947.563    -568.127     552.818
  H     -948.538    -564.102     553.400
  H     -949.422    -564.941     552.149
  H     -947.784    -565.415     552.527

 6  7  8  9  10  11  12  13  14  15  26  29  33  34 0
 6-311+G(2d,p)
 ****
 36  38  39  40  41 0
 6-311+G(2d,p)
 ****
 1  2  3  4  5  16  17  18  19  20  21  22  23  24  25 0
 3-21G
 ****
 27  28  30  31  32  35  37  42  43  44  45  46  47 0
 3-21G
 ****
 48  49 0
 3-21G
 ****


