%nproc=1
%NoSave
%Mem=1900MB
#P OB98/GEN NMR

erre ene a

0 1
  C      126.461    -320.878    -195.490
  O      126.242    -319.501    -195.204
  P      127.032    -318.862    -193.964
  C      125.014    -318.306    -192.385
  O      126.153    -319.104    -192.644
  C      124.363    -318.690    -191.041
  O      123.163    -317.887    -190.866
  C      123.900    -320.141    -190.933
  O      123.724    -320.466    -189.548
  C      122.546    -320.086    -191.615
  O      121.742    -321.212    -191.279
  C      122.004    -318.711    -191.154
  N      121.149    -318.044    -192.162
  C      119.816    -318.442    -192.267
  O      119.303    -319.311    -191.569
  N      119.078    -317.818    -193.238
  C      119.518    -316.834    -194.069
  O      118.840    -316.375    -194.983
  C      120.887    -316.358    -193.827
  C      121.629    -316.978    -192.909
  O      126.933    -317.288    -194.223
  O      128.449    -319.328    -193.853
  H      121.802    -321.318    -190.300
  H      127.791    -316.942    -194.537
  H      118.130    -318.142    -193.370
  H      121.247    -315.531    -194.423
  H      122.652    -316.657    -192.728
  H      121.407    -318.808    -190.235
  H      122.677    -320.091    -192.697
  H      124.563    -320.869    -191.406
  H      125.052    -318.444    -190.225
  H      124.292    -318.410    -193.200
  H      125.303    -317.249    -192.356
  P      124.701    -321.566    -188.906
  C      122.944    -323.400    -188.506
  O      124.070    -322.997    -189.265
  O      125.062    -321.356    -187.474
  O      125.988    -321.502    -189.863
  H      126.752    -321.897    -189.411
  H      122.320    -324.053    -189.125
  H      122.345    -322.539    -188.187
  H      123.278    -323.957    -187.629
  H      125.873    -321.164    -196.337
  H      126.178    -321.468    -194.643
  H      127.497    -321.037    -195.705

 3  4  5  6  7  8  9  10  11  12  13  23  28  29  30  31  32 0
 6-311+G(2d,p)
 ****
 33  34 0
 6-311+G(2d,p)
 ****
 1  2  14  15  16  17  18  19  20  21  22  24  25  26  27 0
 3-21G
 ****
 35  36  37  38  39  40  41  42  43  44  45 0
 3-21G
 ****


