%nproc=1
%NoSave
%Mem=1900MB
#P OB98/GEN NMR

erre ene a

0 1
  C      -33.333     -18.197     -14.131
  O      -34.359     -19.141     -14.357
  H      -32.368     -18.707     -14.188
  H      -33.436     -17.752     -13.138
  H      -33.366     -17.417     -14.895
  P      -35.868     -18.619     -14.213
  C      -36.521     -21.129     -14.052
  O      -36.713     -19.812     -13.555
  C      -36.775     -22.138     -12.936
  O      -35.747     -22.018     -11.924
  C      -38.092     -21.932     -12.201
  O      -39.205     -22.442     -12.916
  C      -37.828     -22.699     -10.918
  O      -38.097     -24.099     -11.071
  C      -36.329     -22.442     -10.675
  N      -36.112     -21.468      -9.609
  C      -36.126     -21.979      -8.314
  O      -36.303     -23.169      -8.058
  N      -35.965     -21.064      -7.310
  C      -35.847     -19.715      -7.470
  O      -35.762     -18.944      -6.522
  C      -35.857     -19.231      -8.859
  C      -35.992     -20.115      -9.851
  O      -36.385     -18.576     -15.726
  O      -36.015     -17.298     -13.533
  H      -36.441     -17.651     -16.029
  H      -38.175     -24.459     -10.165
  H      -35.969     -21.414      -6.365
  H      -35.768     -18.164      -9.022
  H      -36.013     -19.782     -10.883
  H      -35.822     -23.374     -10.394
  H      -38.459     -22.336     -10.110
  H      -38.229     -20.871     -11.961
  H      -36.724     -23.148     -13.361
  H      -35.491     -21.243     -14.405
  H      -37.200     -21.295     -14.894
  P      -40.509     -21.514     -13.029
  C      -41.835     -23.568     -14.002
  O      -41.758     -22.519     -13.051
  O      -40.374     -20.999     -14.537
  O      -40.558     -20.443     -11.994
  H      -39.883     -21.630     -15.092
  H      -42.738     -24.121     -13.851
  H      -40.994     -24.219     -13.884
  H      -41.831     -23.155     -14.989

 6  7  8  9  10  11  12  13  14  15  16  27  31  32  33  34  35 0
 6-311+G(2d,p)
 ****
 36  37 0
 6-311+G(2d,p)
 ****
 1  2  3  4  5  17  18  19  20  21  22  23  24  25 0
 3-21G
 ****
 26  28  29  30  38  39  40  41  42  43  44  45 0
 3-21G
 ****


