%nproc=1
%NoSave
%Mem=1900MB
#P OB98/GEN NMR

erre ene a

0 1
  C     2899.761    -941.917     132.327
  O     2899.426    -942.093     133.683
  H     2898.826    -941.859     131.738
  H     2900.339    -942.771     131.971
  H     2900.329    -940.987     132.164
  P     2900.589    -941.812     134.758
  C     2898.982    -940.327     136.155
  O     2900.222    -940.426     135.480
  C     2898.172    -939.133     135.644
  O     2897.875    -939.348     134.230
  C     2896.847    -938.909     136.378
  O     2896.607    -937.486     136.490
  C     2895.815    -939.481     135.418
  O     2894.511    -938.941     135.609
  C     2896.454    -939.109     134.074
  N     2893.327    -938.817     130.154
  C     2893.873    -937.831     130.968
  N     2893.425    -936.564     130.742
  N     2894.720    -938.061     131.919
  C     2895.048    -939.358     132.034
  C     2894.615    -940.433     131.306
  C     2893.642    -940.177     130.256
  O     2893.135    -941.006     129.504
  N     2895.169    -941.602     131.754
  C     2895.940    -941.259     132.787
  N     2895.891    -939.878     132.981
  O     2901.840    -941.436     133.830
  O     2900.892    -942.941     135.676
  H     2894.150    -939.302     136.448
  H     2902.385    -942.244     133.681
  H     2892.662    -938.581     129.453
  H     2896.513    -941.915     133.427
  H     2896.307    -938.064     133.834
  H     2895.766    -940.567     135.533
  H     2892.803    -936.289     130.010
  H     2896.807    -939.365     137.379
  H     2893.826    -935.822     131.313
  H     2898.805    -938.229     135.707
  H     2899.174    -940.188     137.229
  H     2898.417    -941.271     136.009
  P     2897.239    -936.734     137.751
  C     2898.855    -934.835     136.936
  O     2898.688    -936.206     137.336
  O     2897.557    -937.908     138.792
  O     2896.335    -935.698     138.352
  H     2897.420    -937.589     139.707
  H     2899.882    -934.656     136.694
  H     2898.560    -934.191     137.738
  H     2898.247    -934.637     136.078

 6  7  8  9  10  11  12  13  14  15  26  29  33  34 0
 6-311+G(2d,p)
 ****
 36  38  39  40  41 0
 6-311+G(2d,p)
 ****
 1  2  3  4  5  16  17  18  19  20  21  22  23  24  25 0
 3-21G
 ****
 27  28  30  31  32  35  37  42  43  44  45  46  47 0
 3-21G
 ****
 48  49 0
 3-21G
 ****


