%nproc=1
%NoSave
%Mem=1900MB
#P OB98/GEN NMR

erre ene a

0 1
  C      297.494    -263.629     168.815
  O      296.110    -263.384     168.587
  P      295.289    -262.640     169.743
  C      294.438    -261.168     167.786
  O      294.113    -261.847     168.996
  C      293.304    -261.304     166.776
  O      292.096    -260.749     167.325
  C      293.533    -260.570     165.463
  O      294.361    -261.304     164.578
  C      292.110    -260.477     164.928
  O      291.755    -261.708     164.284
  C      291.285    -260.280     166.215
  N      287.832    -256.675     165.358
  C      287.861    -257.997     164.944
  N      286.803    -258.415     164.214
  N      288.835    -258.815     165.215
  C      289.806    -258.273     165.977
  C      289.897    -256.974     166.449
  C      288.836    -256.057     166.103
  O      288.785    -254.867     166.387
  N      291.027    -256.794     167.207
  C      291.601    -257.981     167.228
  N      290.913    -258.903     166.468
  O      296.289    -261.474     170.209
  O      294.875    -263.506     170.887
  H      292.467    -261.921     163.653
  H      296.091    -261.220     171.131
  H      287.048    -256.092     165.141
  H      292.507    -258.217     167.770
  H      290.376    -260.893     166.200
  H      291.985    -259.677     164.186
  H      285.964    -257.868     164.092
  H      293.926    -259.559     165.640
  H      286.789    -259.388     163.939
  H      293.132    -262.375     166.594
  H      295.347    -261.609     167.361
  H      294.633    -260.114     168.013
  P      294.916    -260.513     163.289
  C      297.061    -261.979     163.318
  O      295.939    -261.528     162.588
  O      295.857    -259.390     163.929
  O      293.853    -259.932     162.419
  H      295.925    -258.623     163.323
  H      296.819    -262.126     164.375
  H      297.872    -261.255     163.231
  H      297.392    -262.938     162.899
  H      297.912    -264.129     167.966
  H      297.609    -264.244     169.683
  H      298.001    -262.699     168.967

 3  4  5  6  7  8  9  10  11  12  23  26  30  31  33  0
 6-311+G(2d,p)
 ****
 35  36  37  38 0
 6-311+G(2d,p)
 ****
 1  2  13  14  15  16  17  18  19  20  21  22  24  25  27  28  29 0
 3-21G
 ****
 32  34  39  40  41  42  43  44  45  46  47  48  49 0
 3-21G
 ****


