%nproc=1
%NoSave
%Mem=1900MB
#P OB98/GEN NMR

erre ene a

0 1
  C      -46.979     135.196    -399.614
  O      -47.798     134.085    -399.311
  H      -47.501     135.830    -400.335
  H      -46.036     134.864    -400.054
  H      -46.783     135.775    -398.708
  P      -47.160     132.968    -398.348
  C      -47.308     130.777    -399.756
  O      -47.916     131.618    -398.788
  C      -47.996     129.415    -399.768
  O      -47.885     128.777    -398.476
  C      -49.491     129.463    -400.068
  O      -49.784     129.644    -401.441
  C      -49.898     128.085    -399.579
  O      -49.474     127.091    -400.530
  C      -49.089     127.986    -398.269
  N      -49.827     128.471    -397.100
  C      -50.117     127.528    -396.107
  O      -49.763     126.357    -396.229
  N      -50.838     127.928    -395.007
  C      -51.217     129.162    -394.895
  N      -51.928     129.498    -393.786
  C      -50.924     130.190    -395.910
  C      -50.234     129.782    -396.972
  O      -47.816     133.288    -396.924
  O      -45.672     132.881    -398.341
  H      -50.110     127.124    -401.269
  H      -47.603     132.565    -396.284
  H      -51.271     131.206    -395.779
  H      -49.977     130.482    -397.759
  H      -48.772     126.954    -398.078
  H      -50.975     127.968    -399.459
  H      -49.999     130.219    -399.457
  H      -47.466     128.781    -400.491
  H      -52.166     128.758    -393.138
  H      -46.250     130.662    -399.496
  H      -52.393     130.389    -393.680
  H      -47.383     131.230    -400.749
  P      -50.431     131.047    -401.877
  C      -52.211     130.097    -403.522
  O      -51.016     130.851    -403.356
  O      -49.155     131.982    -402.106
  O      -51.385     131.636    -400.885
  H      -49.348     132.906    -401.854
  H      -52.468     130.059    -404.560
  H      -53.005     130.562    -402.975
  H      -52.059     129.103    -403.156

 6  7  8  9  10  11  12  13  14  15  16  26  30  31  32  33  35 0
 6-311+G(2d,p)
 ****
 37  38 0
 6-311+G(2d,p)
 ****
 1  2  3  4  5  17  18  19  20  21  22  23  24  25 0
 3-21G
 ****
 27  28  29  34  36  39  40  41  42  43  44  45  46 0
 3-21G
 ****


