%nproc=1
%NoSave
%Mem=1900MB
#P OB98/GEN NMR

erre ene a

0 1
  C      136.724      19.482      47.890
  O      135.939      18.330      48.139
  P      134.409      18.467      48.585
  C      135.098      17.683      50.928
  O      134.386      18.661      50.182
  C      134.836      17.823      52.426
  O      135.502      19.020      52.912
  C      133.352      17.938      52.810
  O      133.203      17.291      54.077
  C      133.163      19.441      52.974
  O      132.034      19.769      53.767
  C      134.506      19.814      53.596
  N      133.983      24.457      55.680
  C      133.508      23.245      56.051
  N      133.670      22.059      55.427
  C      134.414      22.202      54.315
  C      134.938      23.376      53.797
  C      134.719      24.549      54.543
  N      135.224      25.781      54.201
  N      135.591      23.122      52.603
  C      135.460      21.826      52.409
  N      134.810      21.218      53.450
  O      133.498      17.397      48.078
  O      133.971      19.908      48.039
  H      131.232      19.456      53.309
  H      133.390      19.803      47.258
  H      132.931      23.227      56.967
  H      135.809      21.280      51.544
  H      134.551      19.566      54.664
  H      133.033      19.903      51.991
  H      132.666      17.508      52.070
  H      135.298      16.968      52.935
  H      136.165      17.821      50.734
  H      135.114      26.527      54.875
  H      135.979      25.830      53.519
  H      134.816      16.680      50.587
  P      131.828      16.547      54.440
  C      130.959      18.645      55.624
  O      130.717      17.691      54.606
  O      131.912      15.563      55.561
  O      131.418      15.836      53.058
  H      130.757      15.139      53.242
  H      130.662      18.227      56.589
  H      130.359      19.541      55.420
  H      132.013      18.924      55.658
  H      137.712      19.186      47.605
  H      136.772      20.079      48.777
  H      136.281      20.052      47.100

 3  4  5  6  7  8  9  10  11  12  22  25  29  30  31  32 0
 6-311+G(2d,p)
 ****
 33  36  37 0
 6-311+G(2d,p)
 ****
 1  2  13  14  15  16  17  18  19  20  21  23  24  26 0
 3-21G
 ****
 27  28  34  35  38  39  40  41  42  43  44  45  46  47  48 0
 3-21G
 ****


