%nproc=1
%NoSave
%Mem=1900MB
#P OB98/GEN NMR

erre ene a

0 1
  C      -72.465      55.553     428.300
  O      -71.503      56.409     428.932
  P      -72.023      57.800     429.541
  C      -70.327      59.698     428.949
  O      -70.732      58.703     429.885
  C      -69.088      60.424     429.461
  O      -69.278      60.947     430.795
  C      -67.842      59.547     429.532
  O      -67.194      59.444     428.276
  C      -66.972      60.345     430.499
  O      -66.333      61.420     429.798
  C      -68.004      60.888     431.491
  N      -66.026      59.806     436.022
  C      -65.633      60.740     435.078
  N      -64.556      61.493     435.380
  N      -66.229      60.900     433.933
  C      -67.313      60.092     433.765
  C      -67.801      59.140     434.634
  C      -67.105      58.954     435.891
  O      -67.407      58.143     436.762
  N      -68.902      58.511     434.113
  C      -69.094      59.095     432.946
  N      -68.144      60.062     432.677
  O      -72.551      57.380     430.995
  O      -73.083      58.470     428.736
  H      -65.957      61.045     428.978
  H      -73.256      57.990     431.277
  H      -65.523      59.720     436.886
  H      -69.903      58.869     432.260
  H      -67.768      61.897     431.837
  H      -66.176      59.734     430.939
  H      -64.068      61.454     436.267
  H      -68.078      58.564     429.966
  H      -64.270      62.195     434.712
  H      -68.879      61.276     428.779
  H      -71.142      60.420     428.782
  H      -70.151      59.225     427.972
  P      -67.645      58.262     427.288
  C      -65.507      57.377     426.105
  O      -66.593      58.268     426.071
  O      -68.997      58.832     426.647
  O      -67.861      56.936     427.955
  H      -69.606      58.092     426.437
  H      -64.998      57.407     425.144
  H      -65.849      56.356     426.292
  H      -64.791      57.676     426.890
  H      -71.977      54.669     427.945
  H      -72.914      56.068     427.477
  H      -73.221      55.283     429.007

 3  4  5  6  7  8  9  10  11  12  23  26  30  31 0
 6-311+G(2d,p)
 ****
 33  35  36  37  38 0
 6-311+G(2d,p)
 ****
 1  2  13  14  15  16  17  18  19  20  21  22  24  25 0
 3-21G
 ****
 27  28  29  32  34  39  40  41  42  43  44  45  46  47  48  49 0
 3-21G
 ****


