%nproc=1
%NoSave
%Mem=1900MB
#P OB98/GEN NMR

erre ene a

0 1
  C     -107.434     228.446     -11.948
  O     -108.660     228.106     -11.331
  H     -107.530     228.288     -13.026
  H     -106.632     227.803     -11.570
  H     -107.191     229.495     -11.765
  P     -108.794     228.442      -9.762
  C     -108.302     231.018      -9.953
  O     -109.240     229.984      -9.692
  C     -109.003     232.236     -10.559
  O     -109.798     231.800     -11.692
  C     -109.936     232.963      -9.586
  O     -109.854     234.368      -9.839
  C     -111.315     232.448      -9.964
  O     -112.348     233.354      -9.580
  C     -111.157     232.228     -11.479
  N     -112.115     231.252     -12.002
  C     -113.386     231.734     -12.335
  O     -113.668     232.919     -12.165
  N     -114.323     230.848     -12.811
  C     -114.040     229.580     -12.886
  N     -115.021     228.756     -13.348
  C     -112.729     229.024     -12.495
  C     -111.819     229.905     -12.078
  O     -107.260     228.464      -9.305
  O     -109.659     227.488      -9.003
  H     -113.215     232.958      -9.837
  H     -106.671     228.903      -9.938
  H     -112.544     227.960     -12.562
  H     -110.829     229.584     -11.778
  H     -111.298     233.174     -12.020
  H     -111.511     231.490      -9.464
  H     -109.709     232.761      -8.540
  H     -108.236     232.914     -10.954
  H     -115.914     229.179     -13.586
  H     -107.527     230.663     -10.641
  H     -114.931     227.751     -13.395
  H     -107.822     231.286      -9.007
  P     -109.126     235.315      -8.767
  C     -106.557     235.202      -8.574
  O     -107.663     235.697      -9.313
  O     -109.175     234.847      -7.349
  O     -109.921     236.708      -8.925
  H     -110.028     237.098      -8.034
  H     -105.647     235.523      -9.036
  H     -106.590     234.133      -8.556
  H     -106.600     235.577      -7.573

 6  7  8  9  10  11  12  13  14  15  16  26  30  31  32  33  35 0
 6-311+G(2d,p)
 ****
 37  38 0
 6-311+G(2d,p)
 ****
 1  2  3  4  5  17  18  19  20  21  22  23  24  25 0
 3-21G
 ****
 27  28  29  34  36  39  40  41  42  43  44  45  46 0
 3-21G
 ****


