%nproc=1
%NoSave
%Mem=1900MB
#P OB98/GEN NMR

erre ene a

0 1
  C      351.724     351.482     120.192
  O      350.997     350.571     119.368
  P      350.699     350.796     117.814
  C      352.695     351.193     116.165
  O      351.968     350.291     116.982
  C      353.684     350.490     115.218
  O      354.781     349.934     115.988
  C      353.005     349.310     114.517
  O      352.228     349.523     113.356
  C      354.112     348.279     114.341
  O      354.744     348.369     113.062
  C      355.103     348.634     115.450
  N      357.203     344.342     117.288
  C      357.432     344.985     116.086
  N      358.302     344.386     115.239
  N      356.858     346.104     115.741
  C      355.952     346.547     116.638
  C      355.617     345.990     117.851
  C      356.306     344.782     118.250
  O      356.147     344.180     119.313
  N      354.637     346.711     118.484
  C      354.359     347.687     117.647
  N      355.135     347.636     116.511
  O      350.138     352.129     117.451
  O      349.568     349.690     117.492
  H      355.239     349.206     113.029
  H      348.991     350.073     116.800
  H      357.695     343.496     117.514
  H      353.614     348.458     117.808
  H      356.125     348.704     115.062
  H      353.706     347.262     114.414
  H      358.685     343.467     115.396
  H      352.309     348.865     115.241
  H      358.307     344.733     114.278
  H      354.133     351.200     114.525
  H      353.231     351.869     116.837
  H      352.008     351.810     115.585
  P      350.671     349.906     113.314
  C      349.243     351.980     113.793
  O      350.546     351.487     113.517
  O      350.095     349.326     114.691
  O      349.917     349.354     112.147
  H      349.123     349.274     114.657
  H      349.224     353.057     113.607
  H      348.997     351.796     114.841
  H      348.500     351.493     113.152
  H      351.781     351.095     121.188
  H      351.224     352.428     120.205
  H      352.712     351.606     119.801

 3  4  5  6  7  8  9  10  11  12  23  26  30  31 0
 6-311+G(2d,p)
 ****
 33  35  36  37  38 0
 6-311+G(2d,p)
 ****
 1  2  13  14  15  16  17  18  19  20  21  22  24  25 0
 3-21G
 ****
 27  28  29  32  34  39  40  41  42  43  44  45  46  47  48  49 0
 3-21G
 ****


