%nproc=1
%NoSave
%Mem=1900MB
#P OB98/GEN NMR

erre ene a

0 1
  C      483.408      31.988     178.223
  O      484.500      31.117     178.566
  P      484.413      30.000     179.714
  C      486.349      30.759     181.261
  O      484.940      30.651     181.085
  C      486.685      31.384     182.616
  O      486.100      32.700     182.724
  C      486.139      30.635     183.826
  O      486.847      29.436     184.090
  C      486.274      31.701     184.917
  O      487.589      31.710     185.481
  C      486.023      33.004     184.139
  N      484.748      33.631     184.464
  C      484.799      34.735     185.324
  O      485.864      35.084     185.824
  N      483.633      35.402     185.598
  C      482.505      34.945     185.144
  N      481.380      35.657     185.439
  C      482.394      33.710     184.351
  C      483.545      33.108     184.050
  O      485.092      28.718     179.361
  O      482.847      29.777     179.969
  H      482.698      28.874     180.311
  H      487.758      30.809     185.828
  H      481.430      33.338     184.035
  H      483.555      32.200     183.459
  H      486.836      33.717     184.321
  H      485.572      31.533     185.745
  H      485.075      30.414     183.664
  H      487.779      31.476     182.687
  H      481.492      36.509     185.977
  H      486.752      31.401     180.464
  H      480.455      35.404     185.121
  H      486.803      29.767     181.161
  P      486.144      28.062     183.645
  C      485.843      27.362     186.130
  O      485.234      27.567     184.866
  O      487.359      27.018     183.620
  O      485.448      28.123     182.330
  H      487.250      26.408     182.861
  H      485.095      27.511     186.910
  H      486.670      28.062     186.301
  H      486.217      26.339     186.187
  H      483.709      32.642     177.432
  H      483.131      32.567     179.079
  H      482.572      31.402     177.903

 3  4  5  6  7  8  9  10  11  12  13  24  27  28  29  30  32 0
 6-311+G(2d,p)
 ****
 34  35 0
 6-311+G(2d,p)
 ****
 1  2  14  15  16  17  18  19  20  21  22  23  25  26 0
 3-21G
 ****
 31  33  36  37  38  39  40  41  42  43  44  45  46 0
 3-21G
 ****


