%nproc=1
%NoSave
%Mem=1900MB
#P OB98/GEN NMR

erre ene a

0 1
  C       44.287     -90.657     207.951
  O       43.132     -90.911     207.180
  H       45.162     -90.999     207.394
  H       44.236     -91.207     208.894
  H       44.396     -89.587     208.149
  P       41.722     -90.339     207.685
  C       39.371     -91.272     207.168
  O       40.681     -91.556     207.633
  C       38.629     -92.566     206.808
  O       39.484     -93.361     205.931
  C       38.277     -93.451     208.023
  O       37.075     -94.160     207.688
  C       39.477     -94.381     208.055
  O       39.290     -95.478     208.912
  C       39.619     -94.660     206.552
  N       40.868     -95.293     206.149
  C       41.012     -96.656     206.401
  O       40.157     -97.363     206.934
  N       42.205     -97.209     206.015
  C       43.236     -96.554     205.405
  O       44.269     -97.110     205.052
  C       43.028     -95.118     205.172
  C       41.872     -94.564     205.545
  O       41.259     -89.082     207.026
  O       41.942     -90.131     209.258
  H       42.098     -89.184     209.444
  H       38.882     -95.164     209.748
  H       42.325     -98.195     206.185
  H       43.829     -94.563     204.702
  H       41.686     -93.508     205.377
  H       38.779     -95.270     206.206
  H       40.352     -93.849     208.438
  H       38.121     -92.879     208.940
  H       37.731     -92.311     206.232
  H       39.455     -90.636     206.278
  H       38.825     -90.729     207.943
  P       35.630     -93.773     208.271
  C       33.201     -94.631     208.004
  O       34.585     -94.896     207.795
  O       35.199     -92.378     207.950
  O       35.737     -93.995     209.853
  H       35.097     -93.416     210.307
  H       32.622     -95.455     207.644
  H       32.924     -93.742     207.476
  H       33.018     -94.496     209.050

 6  7  8  9  10  11  12  13  14  15  16  27  31  32  33  34  35 0
 6-311+G(2d,p)
 ****
 36  37 0
 6-311+G(2d,p)
 ****
 1  2  3  4  5  17  18  19  20  21  22  23  24  25 0
 3-21G
 ****
 26  28  29  30  38  39  40  41  42  43  44  45 0
 3-21G
 ****


