%nproc=1
%NoSave
%Mem=1900MB
#P OB98/GEN NMR

erre ene a

0 1
  C      486.708     507.366     -97.775
  O      486.856     508.699     -98.224
  H      485.958     506.869     -98.393
  H      486.371     507.356     -96.734
  H      487.657     506.829     -97.866
  P      487.904     509.611     -97.421
  C      486.262     510.865     -95.854
  O      487.104     510.937     -96.994
  C      486.353     512.154     -95.042
  O      487.650     512.273     -94.419
  C      486.139     513.427     -95.854
  O      484.761     513.696     -96.026
  C      486.836     514.457     -94.976
  O      485.992     514.883     -93.887
  C      488.047     513.672     -94.454
  N      491.856     516.785     -95.584
  C      490.837     516.919     -94.664
  N      490.800     518.088     -93.979
  N      489.931     516.008     -94.441
  C      490.077     514.911     -95.223
  C      491.056     514.650     -96.158
  C      492.067     515.662     -96.373
  O      493.032     515.576     -97.124
  N      490.877     513.419     -96.733
  C      489.774     512.953     -96.176
  N      489.244     513.829     -95.264
  O      488.895     510.136     -98.566
  O      488.646     508.923     -96.327
  H      485.212     515.343     -94.248
  H      489.783     510.268     -98.183
  H      492.534     517.521     -95.699
  H      489.327     511.992     -96.397
  H      488.317     513.960     -93.433
  H      487.094     515.355     -95.540
  H      491.239     518.924     -94.332
  H      486.657     513.363     -96.820
  H      490.041     518.201     -93.319
  H      485.613     512.085     -94.235
  H      486.577     510.023     -95.230
  H      485.229     510.698     -96.179
  P      484.255     514.085     -97.502
  C      485.702     516.175     -98.051
  O      484.440     515.672     -97.641
  O      482.670     513.904     -97.408
  O      484.847     513.267     -98.598
  H      482.284     513.848     -98.301
  H      485.663     517.243     -98.095
  H      485.943     515.787     -99.018
  H      486.451     515.874     -97.349

 6  7  8  9  10  11  12  13  14  15  26  29  33  34 0
 6-311+G(2d,p)
 ****
 36  38  39  40  41 0
 6-311+G(2d,p)
 ****
 1  2  3  4  5  16  17  18  19  20  21  22  23  24  25 0
 3-21G
 ****
 27  28  30  31  32  35  37  42  43  44  45  46  47 0
 3-21G
 ****
 48  49 0
 3-21G
 ****


