%nproc=1
%NoSave
%Mem=1900MB
#P OB98/GEN NMR

erre ene a

0 1
  C      744.219    -226.077    -319.273
  O      745.551    -225.776    -319.648
  H      743.549    -225.943    -320.129
  H      744.171    -227.116    -318.944
  H      743.902    -225.427    -318.450
  P      745.845    -224.286    -320.159
  C      748.262    -223.921    -319.267
  O      747.437    -224.213    -320.388
  C      749.678    -223.628    -319.738
  O      750.341    -224.872    -320.106
  C      749.760    -222.737    -320.978
  O      749.631    -221.369    -320.652
  C      751.171    -223.066    -321.456
  O      752.135    -222.375    -320.640
  C      751.241    -224.577    -321.210
  N      752.960    -227.177    -325.273
  C      753.594    -226.464    -324.321
  N      753.082    -225.800    -323.276
  C      751.734    -225.914    -323.276
  C      750.940    -226.599    -324.172
  C      751.608    -227.262    -325.230
  N      750.962    -227.975    -326.209
  N      749.599    -226.463    -323.860
  C      749.594    -225.739    -322.755
  N      750.853    -225.378    -322.368
  O      745.618    -223.386    -318.845
  O      745.021    -223.818    -321.317
  H      751.872    -221.428    -320.657
  H      745.454    -222.459    -319.103
  H      754.686    -226.428    -324.413
  H      748.700    -225.437    -322.217
  H      752.251    -224.907    -320.911
  H      751.342    -222.759    -322.497
  H      749.041    -223.042    -321.741
  H      750.236    -223.191    -318.903
  H      748.269    -224.785    -318.594
  H      751.512    -228.252    -327.012
  H      749.957    -227.914    -326.260
  H      747.850    -223.049    -318.734
  P      748.795    -220.449    -321.668
  C      747.391    -218.943    -320.066
  O      748.550    -219.059    -320.910
  O      747.350    -221.135    -321.680
  O      749.383    -220.342    -323.048
  H      746.884    -220.961    -322.525
  H      747.363    -217.966    -319.632
  H      747.441    -219.677    -319.289
  H      746.508    -219.100    -320.649

 6  7  8  9  10  11  12  13  14  15  25  28  32  33  34  35 0
 6-311+G(2d,p)
 ****
 36  39  40 0
 6-311+G(2d,p)
 ****
 1  2  3  4  5  16  17  18  19  20  21  22  23  24 0
 3-21G
 ****
 26  27  29  30  31  37  38  41  42  43  44  45  46  47 0
 3-21G
 ****
 48 0
 3-21G
 ****


