%nproc=1
%NoSave
%Mem=1900MB
#P OB98/GEN NMR

erre ene a

0 1
  C      486.579      12.438      -8.320
  O      487.030      13.665      -8.862
  H      486.669      11.661      -9.085
  H      485.532      12.520      -8.020
  H      487.195      12.155      -7.459
  P      486.956      14.942      -7.895
  C      487.065      16.528      -9.947
  O      486.351      16.137      -8.780
  C      486.165      17.344     -10.871
  O      485.035      16.557     -11.309
  C      485.595      18.612     -10.242
  O      486.530      19.674     -10.302
  C      484.374      18.854     -11.117
  O      484.731      19.499     -12.356
  C      483.870      17.425     -11.369
  N      478.975      17.664     -10.139
  C      479.652      18.202     -11.213
  N      478.924      18.961     -12.061
  N      480.931      18.022     -11.437
  C      481.532      17.270     -10.486
  C      480.970      16.667      -9.382
  C      479.551      16.848      -9.170
  O      478.881      16.349      -8.269
  N      481.906      15.969      -8.665
  C      483.038      16.177      -9.311
  N      482.867      16.976     -10.417
  O      488.492      15.365      -7.716
  O      486.294      14.712      -6.579
  H      485.003      20.415     -12.173
  H      488.611      15.768      -6.835
  H      477.993      17.825     -10.030
  H      484.001      15.778      -9.024
  H      483.432      17.312     -12.365
  H      483.648      19.504     -10.624
  H      478.059      19.397     -11.774
  H      485.277      18.423      -9.210
  H      479.415      19.377     -12.843
  H      486.753      17.591     -11.768
  H      487.403      15.632     -10.474
  H      487.939      17.121      -9.652
  P      486.220      20.991      -9.434
  C      487.079      22.178     -11.583
  O      486.203      22.222     -10.466
  O      487.571      21.220      -8.611
  O      485.028      20.881      -8.541
  H      487.409      21.817      -7.861
  H      486.951      23.062     -12.172
  H      486.855      21.318     -12.178
  H      488.091      22.121     -11.241

 6  7  8  9  10  11  12  13  14  15  26  29  33  34 0
 6-311+G(2d,p)
 ****
 36  38  39  40  41 0
 6-311+G(2d,p)
 ****
 1  2  3  4  5  16  17  18  19  20  21  22  23  24  25 0
 3-21G
 ****
 27  28  30  31  32  35  37  42  43  44  45  46  47 0
 3-21G
 ****
 48  49 0
 3-21G
 ****


