%nproc=1
%NoSave
%Mem=1900MB
#P OB98/GEN NMR

erre ene a

0 1
  C      224.903    -197.153      84.894
  O      226.049    -196.574      85.529
  P      226.252    -194.991      85.686
  C      224.177    -193.834      86.692
  O      225.423    -194.474      86.955
  C      223.850    -192.776      87.752
  O      223.769    -193.374      89.058
  C      224.880    -191.661      87.879
  O      224.767    -190.735      86.814
  C      224.532    -191.100      89.255
  O      223.430    -190.181      89.176
  C      224.132    -192.372      90.027
  N      225.189    -192.843      90.913
  C      225.308    -192.191      92.144
  O      224.586    -191.233      92.416
  N      226.266    -192.628      93.028
  C      227.077    -193.579      92.682
  N      228.000    -193.974      93.600
  C      227.043    -194.230      91.359
  C      226.082    -193.817      90.535
  O      225.991    -194.217      84.433
  O      227.778    -194.810      86.141
  H      223.748    -189.410      88.669
  H      228.114    -193.961      85.799
  H      227.754    -194.999      91.100
  H      225.978    -194.250      89.546
  H      223.231    -192.188      90.624
  H      225.368    -190.560      89.710
  H      225.888    -192.089      87.905
  H      222.862    -192.358      87.512
  H      227.993    -193.512      94.500
  H      223.392    -194.599      86.692
  H      228.676    -194.704      93.433
  H      224.220    -193.376      85.699
  P      226.054    -190.373      85.934
  C      227.208    -191.466      83.918
  O      225.982    -191.243      84.591
  O      227.361    -190.419      86.653
  O      225.746    -188.890      85.406
  H      226.589    -188.409      85.308
  H      227.108    -192.358      83.293
  H      228.026    -191.617      84.629
  H      227.431    -190.607      83.280
  H      224.988    -198.220      84.908
  H      224.847    -196.813      83.881
  H      224.018    -196.859      85.419

 3  4  5  6  7  8  9  10  11  12  13  23  27  28  29  30  32 0
 6-311+G(2d,p)
 ****
 34  35 0
 6-311+G(2d,p)
 ****
 1  2  14  15  16  17  18  19  20  21  22  24  25  26 0
 3-21G
 ****
 31  33  36  37  38  39  40  41  42  43  44  45  46 0
 3-21G
 ****


