%nproc=1
%NoSave
%Mem=1900MB
#P OB98/GEN NMR

erre ene a

0 1
  C     -363.528      81.193    -423.130
  O     -364.636      81.967    -422.689
  P     -365.338      83.122    -423.546
  C     -366.564      84.499    -421.679
  O     -366.656      83.590    -422.768
  C     -367.733      84.372    -420.680
  O     -368.990      84.546    -421.387
  C     -367.768      82.968    -420.074
  O     -366.943      82.649    -418.967
  C     -369.244      82.685    -419.853
  O     -369.669      83.015    -418.525
  C     -369.940      83.591    -420.872
  N     -374.030      81.051    -422.608
  C     -373.809      81.602    -421.360
  N     -374.775      81.411    -420.435
  N     -372.728      82.262    -421.044
  C     -371.803      82.300    -422.030
  C     -371.896      81.781    -423.302
  C     -373.124      81.101    -423.660
  O     -373.376      80.605    -424.755
  N     -370.751      81.996    -424.022
  C     -369.956      82.631    -423.178
  N     -370.552      82.842    -421.956
  O     -365.478      82.848    -425.004
  O     -364.330      84.368    -423.376
  H     -369.176      82.452    -417.903
  H     -364.379      84.881    -424.209
  H     -374.891      80.574    -422.808
  H     -368.946      82.952    -423.410
  H     -370.742      84.175    -420.403
  H     -369.460      81.618    -419.989
  H     -375.573      80.816    -420.578
  H     -367.452      82.267    -420.862
  H     -374.523      81.621    -419.466
  H     -367.696      85.169    -419.931
  H     -366.536      85.507    -422.107
  H     -365.617      84.363    -421.153
  P     -365.401      82.232    -419.027
  C     -364.849      80.401    -417.319
  O     -364.951      81.795    -417.553
  O     -364.631      83.626    -419.225
  O     -365.038      81.272    -420.113
  H     -363.715      83.470    -419.528
  H     -364.843      80.218    -416.246
  H     -363.914      80.031    -417.751
  H     -365.694      79.868    -417.769
  H     -363.256      80.493    -422.368
  H     -362.700      81.839    -423.333
  H     -363.795      80.664    -424.021

 3  4  5  6  7  8  9  10  11  12  23  26  30  31 0
 6-311+G(2d,p)
 ****
 33  35  36  37  38 0
 6-311+G(2d,p)
 ****
 1  2  13  14  15  16  17  18  19  20  21  22  24  25 0
 3-21G
 ****
 27  28  29  32  34  39  40  41  42  43  44  45  46  47  48  49 0
 3-21G
 ****


