%nproc=1
%NoSave
%Mem=1900MB
#P OB98/GEN NMR

erre ene a

0 1
  C       47.885      66.053      18.753
  O       47.154      67.198      18.349
  P       45.811      67.559      19.144
  C       44.437      66.418      17.260
  O       44.598      67.557      18.092
  C       44.703      66.771      15.796
  O       44.646      65.566      14.987
  C       43.690      67.760      15.210
  O       44.348      68.603      14.252
  C       42.730      66.871      14.446
  O       42.051      67.593      13.420
  C       43.684      65.791      13.937
  N       40.434      63.618      10.735
  C       41.114      64.813      10.617
  N       40.818      65.570       9.538
  N       42.007      65.228      11.476
  C       42.195      64.370      12.510
  C       41.594      63.150      12.727
  C       40.599      62.711      11.774
  O       39.942      61.677      11.836
  N       42.069      62.554      13.865
  C       42.924      63.425      14.363
  N       43.007      64.558      13.595
  O       46.006      69.111      19.489
  O       45.587      66.761      20.383
  H       41.504      66.947      12.934
  H       46.224      69.215      20.433
  H       39.746      63.347      10.052
  H       43.484      63.299      15.280
  H       44.236      66.128      13.051
  H       41.979      66.456      15.127
  H       40.092      65.338       8.877
  H       43.182      68.383      15.953
  H       41.269      66.471       9.452
  H       45.721      67.166      15.711
  H       43.416      66.047      17.357
  H       45.120      65.626      17.586
  P       44.033      70.173      14.365
  C       42.462      69.962      12.301
  O       43.550      70.628      12.908
  O       45.485      70.830      14.508
  O       43.129      70.537      15.495
  H       45.424      71.686      14.971
  H       41.646      70.675      12.157
  H       42.100      69.124      12.904
  H       42.778      69.582      11.326
  H       48.750      65.944      18.132
  H       47.267      65.184      18.660
  H       48.190      66.166      19.772

 3  4  5  6  7  8  9  10  11  12  23  26  30  31 0
 6-311+G(2d,p)
 ****
 33  35  36  37  38 0
 6-311+G(2d,p)
 ****
 1  2  13  14  15  16  17  18  19  20  21  22  24  25 0
 3-21G
 ****
 27  28  29  32  34  39  40  41  42  43  44  45  46  47  48  49 0
 3-21G
 ****


