%nproc=1
%NoSave
%Mem=1900MB
#P OB98/GEN NMR

erre ene a

0 1
  C       87.039    -414.318       2.741
  O       87.999    -415.368       2.609
  P       88.433    -416.206       3.901
  C       88.620    -418.665       3.123
  O       89.313    -417.466       3.445
  C       89.582    -419.676       2.489
  O       90.124    -419.177       1.242
  C       90.802    -419.954       3.357
  O       90.583    -420.677       4.553
  C       91.782    -420.545       2.357
  O       91.546    -421.937       2.149
  C       91.445    -419.741       1.079
  N       92.432    -418.703       0.787
  C       93.642    -419.141       0.257
  O       93.909    -420.327       0.071
  N       94.560    -418.164      -0.026
  C       94.402    -416.829       0.198
  O       95.265    -415.997      -0.052
  C       93.112    -416.428       0.785
  C       92.203    -417.368       1.050
  O       87.344    -416.509       4.872
  O       89.534    -415.254       4.584
  H       90.614    -422.039       1.874
  H       89.391    -415.278       5.551
  H       95.437    -418.462      -0.419
  H       92.956    -415.373       0.985
  H       91.245    -417.094       1.482
  H       91.395    -420.408       0.208
  H       92.815    -420.443       2.696
  H       91.219    -418.989       3.672
  H       89.030    -420.591       2.265
  H       87.797    -418.446       2.441
  H       88.165    -419.071       4.034
  P       90.362    -419.972       5.974
  C       88.657    -421.779       6.717
  O       89.849    -421.084       7.013
  O       89.675    -418.651       5.989
  O       91.884    -419.759       6.457
  H       91.926    -418.941       6.989
  H       88.450    -422.478       7.533
  H       88.766    -422.346       5.790
  H       87.820    -421.084       6.636
  H       86.869    -413.868       1.785
  H       87.409    -413.580       3.422
  H       86.120    -414.719       3.115

 3  4  5  6  7  8  9  10  11  12  13  23  28  29  30  31  32 0
 6-311+G(2d,p)
 ****
 33  34 0
 6-311+G(2d,p)
 ****
 1  2  14  15  16  17  18  19  20  21  22  24  25  26  27 0
 3-21G
 ****
 35  36  37  38  39  40  41  42  43  44  45 0
 3-21G
 ****


