%nproc=1
%NoSave
%Mem=1900MB
#P OB98/GEN NMR

erre ene a

0 1
  C      122.850    -124.386    -215.997
  O      121.635    -125.100    -215.893
  H      123.144    -124.285    -217.045
  H      122.708    -123.388    -215.573
  H      123.636    -124.899    -215.436
  P      121.608    -126.558    -216.559
  C      122.622    -127.254    -218.840
  O      121.793    -126.340    -218.139
  C      122.849    -126.770    -220.267
  O      123.644    -125.567    -220.265
  C      123.602    -127.749    -221.160
  O      122.759    -128.787    -221.642
  C      124.044    -126.822    -222.283
  O      122.953    -126.618    -223.202
  C      124.348    -125.515    -221.534
  N      128.355    -122.385    -222.253
  C      127.063    -122.301    -222.645
  N      126.058    -123.173    -222.429
  C      126.486    -124.224    -221.711
  C      127.770    -124.448    -221.240
  C      128.734    -123.472    -221.543
  N      130.052    -123.576    -221.153
  N      127.831    -125.625    -220.529
  C      126.605    -126.109    -220.566
  N      125.758    -125.300    -221.276
  O      120.073    -127.003    -216.426
  O      122.522    -127.562    -215.939
  H      123.233    -125.912    -223.815
  H      120.035    -127.963    -216.261
  H      126.801    -121.408    -223.208
  H      126.289    -127.031    -220.096
  H      123.964    -124.641    -222.075
  H      124.887    -127.211    -222.858
  H      124.487    -128.149    -220.653
  H      121.870    -126.524    -220.700
  H      122.139    -128.236    -218.868
  H      130.642    -122.765    -221.225
  H      130.325    -124.391    -220.613
  H      123.576    -127.343    -218.311
  P      123.457    -130.175    -222.051
  C      124.950    -130.809    -224.078
  O      123.880    -130.006    -223.590
  O      122.224    -131.193    -222.118
  O      124.522    -130.649    -221.121
  H      122.537    -132.105    -221.964
  H      125.118    -130.589    -225.112
  H      124.698    -131.843    -223.970
  H      125.838    -130.598    -223.519

 6  7  8  9  10  11  12  13  14  15  25  28  32  33  34  35 0
 6-311+G(2d,p)
 ****
 36  39  40 0
 6-311+G(2d,p)
 ****
 1  2  3  4  5  16  17  18  19  20  21  22  23  24 0
 3-21G
 ****
 26  27  29  30  31  37  38  41  42  43  44  45  46  47  48 0
 3-21G
 ****


