%nproc=1
%NoSave
%Mem=1900MB
#P OB98/GEN NMR

erre ene a

0 1
  C      123.602    -127.749    -221.160
  O      122.759    -128.787    -221.642
  P      123.457    -130.175    -222.051
  C      124.950    -130.809    -224.078
  O      123.880    -130.006    -223.590
  C      125.424    -130.300    -225.432
  O      125.673    -128.885    -225.361
  C      126.728    -130.917    -225.916
  O      126.525    -132.193    -226.505
  C      127.166    -129.898    -226.959
  O      126.473    -130.144    -228.198
  C      126.698    -128.571    -226.337
  N      130.847    -125.744    -226.999
  C      130.004    -126.315    -227.934
  N      130.298    -126.077    -229.232
  N      128.974    -127.055    -227.627
  C      128.780    -127.175    -226.294
  C      129.543    -126.659    -225.269
  C      130.714    -125.884    -225.625
  O      131.531    -125.408    -224.839
  N      129.021    -126.983    -224.044
  C      127.925    -127.661    -224.323
  N      127.752    -127.831    -225.675
  O      122.224    -131.193    -222.118
  O      124.522    -130.649    -221.121
  H      126.682    -129.399    -228.793
  H      122.537    -132.105    -221.964
  H      131.616    -125.170    -227.291
  H      127.236    -128.046    -223.584
  H      126.236    -127.922    -227.090
  H      128.238    -129.943    -227.177
  H      130.996    -125.412    -229.527
  H      127.468    -130.960    -225.111
  H      129.672    -126.457    -229.931
  H      124.623    -130.468    -226.163
  H      124.603    -131.841    -224.186
  H      125.765    -130.789    -223.348
  P      127.810    -132.891    -227.170
  C      129.418    -131.958    -228.985
  O      128.090    -132.064    -228.514
  O      127.241    -134.293    -227.688
  O      128.968    -133.057    -226.244
  H      127.958    -134.953    -227.736
  H      129.980    -132.881    -228.807
  H      129.918    -131.126    -228.486
  H      129.396    -131.766    -230.059
  H      123.010    -126.888    -220.927
  H      124.320    -127.495    -221.911
  H      124.110    -128.082    -220.279

 3  4  5  6  7  8  9  10  11  12  23  26  30  31  33  0
 6-311+G(2d,p)
 ****
 35  36  37  38 0
 6-311+G(2d,p)
 ****
 1  2  13  14  15  16  17  18  19  20  21  22  24  25  27  28  29 0
 3-21G
 ****
 32  34  39  40  41  42  43  44  45  46  47  48  49 0
 3-21G
 ****


