%nproc=1
%NoSave
%Mem=1900MB
#P OB98/GEN NMR

erre ene a

0 1
  C      936.346    -456.591     679.832
  O      935.862    -457.819     680.348
  P      934.358    -457.826     680.958
  C      933.120    -458.712     678.847
  O      933.546    -458.975     680.194
  C      933.431    -459.926     677.964
  O      934.829    -460.066     677.725
  C      933.004    -461.275     678.579
  O      931.624    -461.530     678.408
  C      933.834    -462.263     677.736
  O      933.192    -462.480     676.471
  C      935.154    -461.478     677.584
  N      938.596    -465.010     678.745
  C      937.880    -464.821     677.592
  N      938.019    -465.760     676.613
  N      937.026    -463.823     677.369
  C      936.972    -462.982     678.438
  C      937.679    -463.021     679.624
  C      938.562    -464.135     679.838
  O      939.213    -464.387     680.863
  N      937.349    -461.962     680.425
  C      936.490    -461.256     679.737
  N      936.194    -461.873     678.522
  O      933.722    -456.467     680.400
  O      934.300    -457.895     682.462
  H      932.241    -462.673     676.673
  H      932.923    -456.242     680.912
  H      939.220    -465.785     678.848
  H      936.032    -460.352     680.065
  H      935.546    -461.596     676.571
  H      933.966    -463.218     678.239
  H      938.573    -466.608     676.766
  H      933.292    -461.355     679.638
  H      937.435    -465.704     675.792
  H      932.930    -459.794     676.995
  H      933.665    -457.841     678.465
  H      932.038    -458.529     678.852
  P      930.771    -461.801     679.743
  C      929.397    -459.548     679.641
  O      929.402    -461.000     679.540
  O      931.556    -460.954     680.871
  O      930.647    -463.242     680.129
  H      931.423    -461.307     681.740
  H      928.476    -459.185     679.223
  H      930.240    -459.127     679.084
  H      929.486    -459.273     680.708
  H      937.342    -456.726     679.465
  H      936.349    -455.854     680.608
  H      935.712    -456.265     679.034

 3  4  5  6  7  8  9  10  11  12  23  26  30  31 0
 6-311+G(2d,p)
 ****
 33  35  36  37  38 0
 6-311+G(2d,p)
 ****
 1  2  13  14  15  16  17  18  19  20  21  22  24  25 0
 3-21G
 ****
 27  28  29  32  34  39  40  41  42  43  44  45  46  47  48  49 0
 3-21G
 ****


