%nproc=1
%NoSave
%Mem=1900MB
#P OB98/GEN NMR

erre ene a

0 1
  C      -49.620      37.829      13.139
  O      -48.723      38.080      12.080
  H      -50.623      37.699      12.725
  H      -49.630      38.682      13.824
  H      -49.346      36.923      13.685
  P      -47.152      37.954      12.353
  C      -46.684      40.483      12.141
  O      -46.669      39.346      12.990
  C      -46.766      41.779      12.956
  O      -46.587      42.916      12.077
  C      -48.150      41.924      13.593
  O      -48.109      42.671      14.805
  C      -48.922      42.713      12.547
  O      -50.055      43.389      13.083
  C      -47.830      43.640      12.017
  N      -50.875      46.214       8.848
  C      -51.078      45.873      10.170
  N      -52.257      46.249      10.712
  N      -50.210      45.210      10.888
  C      -49.110      44.835      10.194
  C      -48.807      45.091       8.876
  C      -49.757      45.860       8.104
  O      -49.638      46.175       6.923
  N      -47.605      44.532       8.521
  C      -47.185      43.933       9.616
  N      -48.057      44.100      10.664
  O      -46.505      38.000      10.888
  O      -46.720      36.732      13.104
  H      -50.617      42.721      13.517
  H      -45.639      37.557      10.885
  H      -51.568      46.739       8.345
  H      -46.262      43.374       9.706
  H      -47.733      44.528      12.656
  H      -49.290      42.012      11.792
  H      -53.020      46.601      10.154
  H      -48.614      40.956      13.788
  H      -52.542      45.763      11.566
  H      -45.956      41.816      13.692
  H      -47.563      40.393      11.495
  H      -45.802      40.488      11.498
  P      -47.891      41.859      16.169
  C      -50.313      40.867      16.332
  O      -48.926      40.635      16.181
  O      -48.445      42.854      17.290
  O      -46.473      41.469      16.415
  H      -47.704      43.255      17.781
  H      -50.835      39.933      16.315
  H      -50.661      41.484      15.530
  H      -50.493      41.359      17.265

 6  7  8  9  10  11  12  13  14  15  26  29  33  34 0
 6-311+G(2d,p)
 ****
 36  38  39  40  41 0
 6-311+G(2d,p)
 ****
 1  2  3  4  5  16  17  18  19  20  21  22  23  24  25 0
 3-21G
 ****
 27  28  30  31  32  35  37  42  43  44  45  46  47 0
 3-21G
 ****
 48  49 0
 3-21G
 ****


