%nproc=1
%NoSave
%Mem=1900MB
#P OB98/GEN NMR

erre ene a

0 1
  C     -382.490      65.616    -132.238
  O     -382.664      66.550    -133.285
  H     -382.751      66.082    -131.285
  H     -383.159      64.766    -132.409
  H     -381.460      65.254    -132.209
  P     -381.581      67.728    -133.406
  C     -381.453      68.056    -135.979
  O     -381.950      68.550    -134.742
  C     -382.531      67.245    -136.702
  O     -382.938      66.144    -135.839
  C     -383.792      68.052    -137.061
  O     -384.257      67.617    -138.345
  C     -384.797      67.621    -136.003
  O     -386.147      67.766    -136.434
  C     -384.375      66.170    -135.772
  N     -386.168      62.086    -133.319
  C     -385.529      62.222    -134.499
  N     -385.034      63.347    -135.059
  C     -385.197      64.396    -134.231
  C     -385.823      64.420    -132.996
  C     -386.342      63.188    -132.544
  N     -387.058      63.056    -131.374
  N     -385.837      65.699    -132.483
  C     -385.253      66.440    -133.403
  N     -384.850      65.699    -134.479
  O     -380.252      66.930    -133.811
  O     -381.384      68.554    -132.177
  H     -386.282      68.683    -136.737
  H     -379.790      66.633    -133.003
  H     -385.406      61.305    -135.077
  H     -385.127      67.517    -133.352
  H     -384.770      65.489    -136.537
  H     -384.656      68.223    -135.098
  H     -383.639      69.139    -137.070
  H     -382.089      66.801    -137.601
  H     -380.591      67.405    -135.787
  H     -387.483      62.163    -131.185
  H     -387.288      63.881    -130.845
  H     -381.132      68.900    -136.603
  P     -383.940      68.567    -139.601
  C     -383.134      66.795    -141.335
  O     -384.145      67.716    -140.944
  O     -382.349      68.755    -139.525
  O     -384.656      69.877    -139.568
  H     -382.100      69.639    -139.854
  H     -383.423      66.313    -142.245
  H     -383.005      66.060    -140.568
  H     -382.213      67.319    -141.486

 6  7  8  9  10  11  12  13  14  15  25  28  32  33  34  35 0
 6-311+G(2d,p)
 ****
 36  39  40 0
 6-311+G(2d,p)
 ****
 1  2  3  4  5  16  17  18  19  20  21  22  23  24 0
 3-21G
 ****
 26  27  29  30  31  37  38  41  42  43  44  45  46  47 0
 3-21G
 ****
 48 0
 3-21G
 ****


