%nproc=1
%NoSave
%Mem=1900MB
#P OB98/GEN NMR

erre ene a

0 1
  C       48.349     -95.581      78.379
  O       47.844     -95.627      79.698
  H       48.086     -94.615      77.939
  H       47.909     -96.378      77.774
  H       49.438     -95.682      78.392
  P       48.026     -97.017      80.486
  C       48.313     -95.871      82.812
  O       47.505     -96.679      81.969
  C       47.584     -95.592      84.123
  O       46.541     -94.610      83.923
  C       46.884     -96.805      84.728
  O       47.769     -97.693      85.390
  C       45.951     -96.107      85.703
  O       46.700     -95.641      86.839
  C       45.457     -94.928      84.840
  N       44.230     -95.237      84.097
  C       43.073     -95.450      84.855
  O       43.104     -95.380      86.083
  N       41.907     -95.776      84.205
  C       41.889     -95.858      82.910
  N       40.704     -96.187      82.323
  C       43.076     -95.630      82.071
  C       44.200     -95.325      82.721
  O       49.610     -97.124      80.687
  O       47.399     -98.215      79.856
  H       46.890     -96.426      87.389
  H       49.823     -97.875      81.293
  H       43.017     -95.721      80.996
  H       45.117     -95.140      82.170
  H       45.275     -94.037      85.455
  H       45.162     -96.754      86.086
  H       46.282     -97.338      83.983
  H       48.310     -95.161      84.824
  H       39.922     -96.397      82.929
  H       48.525     -94.932      82.289
  H       40.625     -96.422      81.341
  H       49.259     -96.380      83.025
  P       47.808     -99.213      84.880
  C       49.845     -99.842      86.373
  O       48.481    -100.082      86.044
  O       48.926     -99.188      83.739
  O       46.500     -99.735      84.368
  H       48.710     -99.814      83.022
  H       50.142    -100.499      87.164
  H       49.962     -98.827      86.690
  H       50.456    -100.020      85.513

 6  7  8  9  10  11  12  13  14  15  16  26  30  31  32  33  35 0
 6-311+G(2d,p)
 ****
 37  38 0
 6-311+G(2d,p)
 ****
 1  2  3  4  5  17  18  19  20  21  22  23  24  25 0
 3-21G
 ****
 27  28  29  34  36  39  40  41  42  43  44  45  46 0
 3-21G
 ****


