%nproc=1
%NoSave
%Mem=1900MB
#P OB98/GEN NMR

erre ene a

0 1
  C      898.180     929.688     258.786
  O      899.458     929.492     259.350
  H      897.428     929.278     259.465
  H      898.111     929.165     257.831
  H      897.978     930.755     258.638
  P      900.699     930.225     258.640
  C      901.756     930.556     260.993
  O      901.381     931.152     259.758
  C      903.258     930.713     261.213
  O      903.954     929.816     260.301
  C      903.791     932.131     260.955
  O      904.838     932.397     261.886
  C      904.385     932.025     259.558
  O      905.372     933.006     259.278
  C      904.941     930.600     259.584
  N      905.168     930.056     258.248
  C      906.480     929.730     257.914
  O      907.435     929.774     258.688
  N      906.674     929.324     256.620
  C      905.716     929.241     255.649
  O      905.956     928.898     254.495
  C      904.354     929.614     256.062
  C      904.150     930.003     257.320
  O      899.977     931.279     257.669
  O      901.644     929.327     257.916
  H      899.812     930.876     256.800
  H      906.121     932.847     259.890
  H      907.616     929.080     256.363
  H      903.574     929.573     255.311
  H      903.160     930.310     257.657
  H      905.867     930.559     260.168
  H      903.587     932.114     258.809
  H      903.025     932.914     261.020
  H      903.504     930.384     262.229
  H      901.507     929.495     260.972
  H      901.200     931.043     261.807
  P      904.492     933.374     263.115
  C      905.198     931.512     264.836
  O      904.192     932.392     264.357
  O      903.061     933.924     262.691
  O      905.535     934.417     263.349
  H      902.523     933.263     262.218
  H      904.814     930.945     265.658
  H      906.045     932.081     265.160
  H      905.494     930.847     264.051

 6  7  8  9  10  11  12  13  14  15  16  27  31  32  33  34  35 0
 6-311+G(2d,p)
 ****
 36  37 0
 6-311+G(2d,p)
 ****
 1  2  3  4  5  17  18  19  20  21  22  23  24  25 0
 3-21G
 ****
 26  28  29  30  38  39  40  41  42  43  44  45 0
 3-21G
 ****


