%nproc=1
%NoSave
%Mem=1900MB
#P OB98/GEN NMR

erre ene a

0 1
  C       14.071    -131.704      -9.200
  O       12.824    -132.093      -9.750
  P       11.499    -132.180      -8.845
  C       10.584    -134.266      -7.618
  O       11.714    -133.459      -7.901
  C       10.967    -135.748      -7.657
  O       11.189    -136.133      -9.039
  C       12.237    -136.094      -6.870
  O       12.049    -137.398      -6.311
  C       13.305    -136.120      -7.946
  O       14.444    -136.880      -7.568
  C       12.511    -136.698      -9.124
  N       13.127    -136.402     -10.412
  C       13.920    -137.391     -10.996
  O       14.109    -138.467     -10.430
  N       14.485    -137.141     -12.222
  C       14.345    -135.976     -12.774
  N       14.876    -135.797     -14.014
  C       13.608    -134.867     -12.139
  C       13.014    -135.156     -10.986
  O       10.220    -132.177      -9.608
  O       11.648    -130.975      -7.809
  H       15.120    -136.789      -8.267
  H       11.318    -130.114      -8.169
  H       13.543    -133.904     -12.626
  H       12.431    -134.412     -10.460
  H       12.400    -137.782      -9.008
  H       13.637    -135.098      -8.157
  H       12.442    -135.381      -6.064
  H       10.116    -136.333      -7.286
  H       15.219    -136.627     -14.486
  H        9.825    -134.078      -8.384
  H       14.538    -135.062     -14.625
  H       10.167    -133.992      -6.644
  P       12.576    -137.670      -4.818
  C       14.863    -137.632      -3.594
  O       14.156    -137.413      -4.796
  O       12.497    -139.273      -4.735
  O       11.777    -137.066      -3.711
  H       12.399    -139.537      -3.802
  H       15.921    -137.415      -3.766
  H       14.769    -138.674      -3.278
  H       14.494    -136.969      -2.807
  H       14.817    -131.711      -9.967
  H       14.349    -132.389      -8.426
  H       13.989    -130.718      -8.792

 3  4  5  6  7  8  9  10  11  12  13  23  27  28  29  30  32 0
 6-311+G(2d,p)
 ****
 34  35 0
 6-311+G(2d,p)
 ****
 1  2  14  15  16  17  18  19  20  21  22  24  25  26 0
 3-21G
 ****
 31  33  36  37  38  39  40  41  42  43  44  45  46 0
 3-21G
 ****


