%nproc=1
%NoSave
%Mem=1900MB
#P OB98/GEN NMR

erre ene a

0 1
  C     -322.340     314.955    -586.734
  O     -321.019     314.484    -586.945
  H     -322.295     315.812    -586.052
  H     -322.952     314.172    -586.271
  H     -322.795     315.279    -587.669
  P     -320.786     313.290    -587.986
  C     -319.344     314.826    -589.465
  O     -320.477     313.967    -589.406
  C     -319.442     315.784    -590.650
  O     -320.647     316.588    -590.512
  C     -318.245     316.736    -590.787
  O     -317.948     316.910    -592.167
  C     -318.779     318.042    -590.193
  O     -318.108     319.189    -590.736
  C     -320.258     317.974    -590.583
  N     -323.406     321.917    -590.360
  C     -322.818     321.312    -591.448
  N     -323.074     321.858    -592.656
  N     -322.021     320.273    -591.361
  C     -321.861     319.830    -590.082
  C     -322.403     320.344    -588.921
  C     -323.264     321.501    -589.027
  O     -323.809     322.091    -588.108
  N     -321.981     319.635    -587.824
  C     -321.187     318.691    -588.327
  N     -321.081     318.781    -589.687
  O     -321.855     312.244    -588.024
  O     -319.366     312.674    -587.558
  H     -317.144     319.041    -590.626
  H     -319.487     311.860    -587.031
  H     -324.004     322.733    -590.484
  H     -320.674     317.945    -587.746
  H     -320.450     318.342    -591.599
  H     -318.643     318.041    -589.112
  H     -323.683     322.647    -592.810
  H     -317.354     316.382    -590.242
  H     -322.666     321.407    -593.486
  H     -319.562     315.187    -591.563
  H     -318.444     314.202    -589.565
  H     -319.267     315.405    -588.523
  P     -317.018     315.837    -592.901
  C     -318.935     315.235    -594.533
  O     -317.969     314.733    -593.592
  O     -315.900     315.270    -592.082
  O     -316.457     316.650    -594.169
  H     -315.571     316.307    -594.393
  H     -319.507     314.420    -594.926
  H     -318.428     315.734    -595.333
  H     -319.588     315.924    -594.040

 6  7  8  9  10  11  12  13  14  15  26  29  33  34 0
 6-311+G(2d,p)
 ****
 36  38  39  40  41 0
 6-311+G(2d,p)
 ****
 1  2  3  4  5  16  17  18  19  20  21  22  23  24  25 0
 3-21G
 ****
 27  28  30  31  32  35  37  42  43  44  45  46  47 0
 3-21G
 ****
 48  49 0
 3-21G
 ****


