%nproc=1
%NoSave
%Mem=1900MB
#P OB98/GEN NMR

erre ene a

0 1
  C     -175.229      -3.322     264.642
  O     -174.018      -4.072     264.661
  P     -173.971      -5.381     265.591
  C     -171.985      -6.350     264.225
  O     -172.461      -5.916     265.494
  C     -170.463      -6.322     264.181
  O     -170.003      -4.959     264.012
  C     -169.786      -6.822     265.445
  O     -169.721      -8.246     265.487
  C     -168.393      -6.218     265.301
  O     -167.594      -7.041     264.419
  C     -168.695      -4.860     264.630
  N     -166.356      -0.579     265.999
  C     -166.069      -1.457     264.972
  N     -165.023      -1.130     264.186
  N     -166.739      -2.551     264.746
  C     -167.784      -2.727     265.588
  C     -168.174      -1.932     266.648
  C     -167.394      -0.744     266.912
  O     -167.561       0.035     267.857
  N     -169.300      -2.428     267.255
  C     -169.607      -3.507     266.557
  N     -168.704      -3.740     265.557
  O     -174.802      -6.460     264.748
  O     -174.526      -5.201     266.961
  H     -167.583      -7.943     264.810
  H     -175.177      -7.133     265.347
  H     -165.818       0.268     266.119
  H     -170.467      -4.130     266.746
  H     -167.975      -4.651     263.828
  H     -167.857      -6.143     266.250
  H     -164.549      -0.238     264.225
  H     -170.268      -6.418     266.341
  H     -164.814      -1.745     263.398
  H     -170.131      -6.900     263.304
  H     -172.378      -5.677     263.450
  H     -172.358      -7.362     264.026
  P     -168.975      -8.897     266.757
  C     -169.776     -11.269     266.056
  O     -168.681     -10.404     266.332
  O     -170.145      -9.023     267.840
  O     -167.820      -8.103     267.263
  H     -169.773      -9.007     268.742
  H     -170.585     -10.732     265.551
  H     -170.145     -11.702     266.988
  H     -169.437     -12.077     265.393
  H     -175.119      -2.484     263.986
  H     -175.449      -2.975     265.630
  H     -176.028      -3.944     264.296

 3  4  5  6  7  8  9  10  11  12  23  26  30  31  33  0
 6-311+G(2d,p)
 ****
 35  36  37  38 0
 6-311+G(2d,p)
 ****
 1  2  13  14  15  16  17  18  19  20  21  22  24  25  27  28  29 0
 3-21G
 ****
 32  34  39  40  41  42  43  44  45  46  47  48  49 0
 3-21G
 ****


