%nproc=1
%NoSave
%Mem=1900MB
#P OB98/GEN NMR

erre ene a

0 1
  C     -249.252     271.688     635.151
  O     -249.437     270.297     635.288
  H     -248.808     271.887     634.169
  H     -248.574     272.066     635.920
  H     -250.213     272.211     635.210
  P     -250.014     269.734     636.675
  C     -252.083     268.818     635.432
  O     -251.605     269.624     636.504
  C     -253.340     268.055     635.871
  O     -254.387     269.034     636.112
  C     -253.835     267.076     634.796
  O     -254.019     265.751     635.288
  C     -255.051     267.779     634.210
  O     -256.020     266.920     633.639
  C     -255.563     268.631     635.376
  N     -256.340     269.797     634.974
  C     -257.573     269.565     634.365
  O     -258.067     268.457     634.167
  N     -258.261     270.689     633.986
  C     -257.848     271.982     634.139
  O     -258.515     272.942     633.780
  C     -256.532     272.159     634.764
  C     -255.847     271.078     635.149
  O     -249.565     270.451     637.901
  O     -249.550     268.199     636.686
  H     -255.575     266.402     632.938
  H     -248.779     268.095     637.280
  H     -259.159     270.532     633.556
  H     -256.167     273.166     634.891
  H     -254.870     271.174     635.612
  H     -256.188     268.027     636.047
  H     -254.708     268.449     633.409
  H     -253.088     266.947     634.006
  H     -253.136     267.550     636.821
  H     -251.290     268.112     635.162
  H     -252.316     269.446     634.570
  P     -253.087     264.503     634.924
  C     -251.323     264.930     636.820
  O     -251.604     264.829     635.432
  O     -253.234     263.977     633.537
  O     -253.587     263.356     635.942
  H     -253.478     262.501     635.469
  H     -250.285     265.152     636.959
  H     -251.557     264.003     637.300
  H     -251.915     265.712     637.248

 6  7  8  9  10  11  12  13  14  15  16  26  31  32  33  34  35 0
 6-311+G(2d,p)
 ****
 36  37 0
 6-311+G(2d,p)
 ****
 1  2  3  4  5  17  18  19  20  21  22  23  24  25 0
 3-21G
 ****
 27  28  29  30  38  39  40  41  42  43  44  45 0
 3-21G
 ****


