%nproc=1
%NoSave
%Mem=1900MB
#P OB98/GEN NMR

erre ene a

0 1
  C     -109.307    -115.240      45.258
  O     -110.147    -114.892      46.345
  P     -109.718    -115.385      47.813
  C     -109.842    -117.677      49.046
  O     -109.818    -116.986      47.808
  C     -109.838    -119.190      48.817
  O     -108.671    -119.534      48.024
  C     -109.781    -120.034      50.095
  O     -110.509    -121.240      49.833
  C     -108.303    -120.351      50.231
  O     -108.059    -121.494      51.045
  C     -107.913    -120.514      48.767
  N     -103.324    -122.615      49.083
  C     -104.552    -123.106      49.487
  N     -104.559    -124.358      49.992
  N     -105.669    -122.432      49.401
  C     -105.506    -121.202      48.862
  C     -104.342    -120.590      48.461
  C     -103.120    -121.358      48.525
  O     -102.028    -120.996      48.099
  N     -104.566    -119.303      48.049
  C     -105.875    -119.165      48.124
  N     -106.493    -120.303      48.568
  O     -110.956    -114.931      48.716
  O     -108.413    -114.857      48.319
  H     -107.095    -121.661      51.045
  H     -110.794    -114.057      49.121
  H     -102.500    -123.188      49.156
  H     -106.426    -118.276      47.868
  H     -108.160    -121.508      48.374
  H     -107.784    -119.498      50.686
  H     -103.741    -124.944      50.058
  H     -110.189    -119.526      50.974
  H     -105.450    -124.754      50.265
  H     -110.723    -119.451      48.224
  H     -110.757    -117.409      49.583
  H     -108.983    -117.373      49.653
  P     -110.866    -122.186      51.076
  C     -109.477    -123.375      52.911
  O     -109.498    -122.821      51.611
  O     -111.600    -123.429      50.378
  O     -111.749    -121.561      52.107
  H     -112.275    -123.792      50.981
  H     -108.656    -124.093      52.973
  H     -110.414    -123.890      53.144
  H     -109.309    -122.581      53.642
  H     -109.716    -114.847      44.351
  H     -109.240    -116.305      45.186
  H     -108.331    -114.831      45.416

 3  4  5  6  7  8  9  10  11  12  23  26  30  31 0
 6-311+G(2d,p)
 ****
 33  35  36  37  38 0
 6-311+G(2d,p)
 ****
 1  2  13  14  15  16  17  18  19  20  21  22  24  25 0
 3-21G
 ****
 27  28  29  32  34  39  40  41  42  43  44  45  46  47  48  49 0
 3-21G
 ****


