%nproc=1
%NoSave
%Mem=1900MB
#P OB98/GEN NMR

erre ene a

0 1
  C      130.858      31.023     -93.338
  O      130.526      31.622     -94.593
  P      129.060      31.295     -95.163
  C      128.485      33.793     -94.753
  O      128.406      32.683     -95.640
  C      128.189      35.106     -95.490
  O      129.066      35.260     -96.646
  C      126.741      35.211     -96.005
  O      126.364      36.591     -95.895
  C      126.895      34.807     -97.465
  O      125.781      35.169     -98.266
  C      128.212      35.504     -97.789
  N      130.397      36.955    -102.168
  C      129.859      37.659    -101.151
  N      129.291      37.196    -100.014
  C      129.321      35.853     -99.987
  C      129.833      34.994    -100.951
  C      130.396      35.600    -102.090
  N      130.927      34.889    -103.143
  N      129.656      33.672    -100.572
  C      128.981      33.742     -99.437
  N      128.832      35.030     -99.007
  O      128.227      30.908     -93.851
  O      129.044      30.208     -96.186
  H      125.936      34.889     -99.192
  H      128.161      29.939     -93.763
  H      129.885      38.741    -101.264
  H      128.584      32.896     -98.890
  H      128.095      36.589     -97.887
  H      127.007      33.718     -97.529
  H      126.030      34.597     -95.446
  H      128.399      35.940     -94.806
  H      129.483      33.849     -94.312
  H      131.304      35.412    -103.920
  H      130.933      33.878    -103.126
  H      127.789      33.637     -93.921
  P      125.485      37.054     -94.637
  C      126.895      37.164     -92.493
  O      126.520      37.833     -93.685
  O      125.329      35.657     -93.856
  O      124.190      37.730     -94.946
  H      126.194      35.220     -93.747
  H      127.656      37.760     -91.982
  H      127.308      36.179     -92.725
  H      126.027      37.062     -91.834
  H      131.851      31.308     -93.058
  H      130.804      29.958     -93.426
  H      130.168      31.355     -92.591

 3  4  5  6  7  8  9  10  11  12  22  25  29  30  31  32 0
 6-311+G(2d,p)
 ****
 33  36  37 0
 6-311+G(2d,p)
 ****
 1  2  13  14  15  16  17  18  19  20  21  23  24  26 0
 3-21G
 ****
 27  28  34  35  38  39  40  41  42  43  44  45  46  47  48 0
 3-21G
 ****


