%nproc=1
%NoSave
%Mem=1900MB
#P OB98/GEN NMR

erre ene a

0 1
  C      225.559       4.752     107.341
  O      225.738       6.016     106.715
  P      224.482       7.007     106.638
  C      223.818       5.840     104.418
  O      223.388       6.307     105.689
  C      222.624       5.541     103.508
  O      221.748       4.593     104.173
  C      221.777       6.768     103.146
  O      221.270       6.559     101.824
  C      220.626       6.691     104.138
  O      219.488       7.428     103.701
  C      220.426       5.179     104.207
  N      215.960       5.270     106.694
  C      216.323       5.744     105.484
  N      217.534       5.681     104.890
  C      218.418       5.051     105.679
  C      218.201       4.543     106.952
  C      216.897       4.666     107.463
  N      216.522       4.175     108.691
  N      219.359       3.992     107.458
  C      220.260       4.164     106.510
  N      219.730       4.774     105.410
  O      225.040       8.209     105.739
  O      223.973       7.499     107.949
  H      219.233       7.102     102.818
  H      225.131       9.017     106.282
  H      215.537       6.236     104.917
  H      221.298       3.863     106.574
  H      219.865       4.797     103.346
  H      220.942       7.097     105.105
  H      222.316       7.717     103.202
  H      222.998       5.053     102.598
  H      224.391       4.919     104.557
  H      215.541       4.179     108.932
  H      217.158       3.560     109.190
  H      224.467       6.587     103.953
  P      220.833       7.863     101.001
  C      218.319       7.528     101.549
  O      219.453       8.368     101.634
  O      220.403       7.273      99.574
  O      221.910       8.889     100.869
  H      220.540       7.945      98.879
  H      217.704       7.671     102.441
  H      218.601       6.470     101.481
  H      217.735       7.800     100.665
  H      226.480       4.208     107.315
  H      224.804       4.200     106.821
  H      225.259       4.897     108.358

 3  4  5  6  7  8  9  10  11  12  22  25  29  30  31  32 0
 6-311+G(2d,p)
 ****
 33  36  37 0
 6-311+G(2d,p)
 ****
 1  2  13  14  15  16  17  18  19  20  21  23  24  26 0
 3-21G
 ****
 27  28  34  35  38  39  40  41  42  43  44  45  46  47  48 0
 3-21G
 ****


