%nproc=1
%NoSave
%Mem=1900MB
#P OB98/GEN NMR

erre ene a

0 1
  C      142.339     167.588    -407.840
  O      143.112     168.658    -407.330
  H      142.457     167.560    -408.924
  H      141.280     167.748    -407.606
  H      142.672     166.631    -407.423
  P      143.229     168.842    -405.738
  C      141.685     170.771    -404.978
  O      141.805     169.374    -405.217
  C      140.500     171.073    -404.055
  O      140.789     170.549    -402.733
  C      140.185     172.566    -403.913
  O      138.770     172.749    -403.835
  C      140.822     172.934    -402.584
  O      140.189     174.059    -401.975
  C      140.666     171.637    -401.790
  N      142.300     173.625    -397.439
  C      141.183     173.943    -398.205
  N      140.406     174.942    -397.755
  N      140.874     173.327    -399.316
  C      141.739     172.325    -399.636
  C      142.868     171.919    -398.971
  C      143.212     172.623    -397.748
  O      144.191     172.404    -397.049
  N      143.490     170.884    -399.618
  C      142.734     170.661    -400.682
  N      141.666     171.521    -400.744
  O      144.403     169.651    -405.286
  O      143.293     167.344    -405.172
  H      140.210     174.786    -402.625
  H      144.195     167.118    -404.896
  H      142.498     174.143    -396.600
  H      142.918     169.905    -401.435
  H      139.679     171.554    -401.304
  H      141.884     173.176    -402.737
  H      140.572     175.444    -396.885
  H      140.589     173.156    -404.741
  H      139.572     175.172    -398.269
  H      139.628     170.522    -404.428
  H      141.544     171.274    -405.945
  H      142.617     171.146    -404.528
  P      137.918     172.852    -405.191
  C      136.982     175.230    -404.883
  O      137.860     174.400    -405.640
  O      136.602     172.148    -405.189
  O      138.913     172.217    -406.291
  H      138.380     171.744    -406.959
  H      137.021     176.230    -405.263
  H      137.284     175.226    -403.857
  H      135.982     174.857    -404.962

 6  7  8  9  10  11  12  13  14  15  26  29  33  34 0
 6-311+G(2d,p)
 ****
 36  38  39  40  41 0
 6-311+G(2d,p)
 ****
 1  2  3  4  5  16  17  18  19  20  21  22  23  24  25 0
 3-21G
 ****
 27  28  30  31  32  35  37  42  43  44  45  46  47 0
 3-21G
 ****
 48  49 0
 3-21G
 ****


