%nproc=1
%NoSave
%Mem=1900MB
#P OB98/GEN NMR

erre ene a

0 1
  C      477.149     477.933    -318.388
  O      476.846     477.779    -319.777
  P      475.334     477.997    -320.267
  C      475.867     479.774    -322.058
  O      475.368     478.467    -321.801
  C      476.222     479.933    -323.539
  O      477.491     479.332    -323.853
  C      475.214     479.291    -324.478
  O      474.023     480.070    -324.556
  C      476.019     479.212    -325.772
  O      475.991     480.465    -326.466
  C      477.450     478.928    -325.236
  N      477.866     477.551    -325.414
  C      477.905     477.082    -326.726
  O      477.538     477.792    -327.659
  N      478.320     475.784    -326.956
  C      478.659     475.033    -325.950
  N      479.063     473.763    -326.239
  C      478.634     475.491    -324.548
  C      478.216     476.747    -324.351
  O      474.469     478.826    -319.373
  O      474.780     476.491    -320.383
  H      476.717     480.427    -327.114
  H      473.822     476.494    -320.200
  H      478.933     474.834    -323.755
  H      478.170     477.157    -323.357
  H      478.177     479.570    -325.760
  H      475.635     478.450    -326.447
  H      474.983     478.280    -324.121
  H      476.295     481.018    -323.751
  H      479.066     473.474    -327.207
  H      476.740     479.964    -321.437
  H      479.402     473.119    -325.529
  H      475.095     480.507    -321.758
  P      472.728     479.363    -325.187
  C      471.364     479.230    -322.981
  O      471.475     479.777    -324.284
  O      472.945     477.811    -324.822
  O      472.568     479.553    -326.656
  H      472.580     477.253    -325.529
  H      470.659     479.841    -322.411
  H      472.332     479.261    -322.460
  H      470.997     478.204    -323.028
  H      478.192     477.755    -318.229
  H      476.576     477.231    -317.818
  H      476.905     478.928    -318.078

 3  4  5  6  7  8  9  10  11  12  13  23  27  28  29  30  32 0
 6-311+G(2d,p)
 ****
 34  35 0
 6-311+G(2d,p)
 ****
 1  2  14  15  16  17  18  19  20  21  22  24  25  26 0
 3-21G
 ****
 31  33  36  37  38  39  40  41  42  43  44  45  46 0
 3-21G
 ****


