%nproc=1
%NoSave
%Mem=1900MB
#P OB98/GEN NMR

erre ene a

0 1
  C      225.542    -195.047    -147.777
  O      224.491    -194.377    -148.475
  P      223.603    -195.197    -149.528
  C      224.917    -195.047    -151.742
  O      224.573    -195.854    -150.628
  C      226.278    -195.462    -152.324
  O      226.245    -196.864    -152.698
  C      226.670    -194.649    -153.568
  O      227.984    -194.098    -153.484
  C      226.427    -195.616    -154.714
  O      227.189    -195.306    -155.870
  C      226.686    -196.982    -154.064
  N      226.002    -198.065    -154.778
  C      226.560    -198.462    -155.987
  O      227.527    -197.902    -156.500
  N      225.927    -199.493    -156.630
  C      224.771    -200.095    -156.226
  O      224.218    -200.985    -156.861
  C      224.192    -199.592    -154.972
  C      224.827    -198.614    -154.316
  O      222.421    -194.477    -150.081
  O      223.137    -196.479    -148.678
  H      227.175    -196.084    -156.470
  H      222.215    -196.683    -148.927
  H      226.328    -199.805    -157.500
  H      223.266    -200.029    -154.632
  H      224.417    -198.214    -153.398
  H      227.755    -197.219    -154.061
  H      225.370    -195.557    -154.996
  H      226.023    -193.774    -153.693
  H      227.024    -195.333    -151.533
  H      224.968    -194.003    -151.432
  H      224.120    -195.105    -152.492
  P      228.318    -192.639    -152.920
  C      227.847    -191.444    -155.171
  O      227.523    -191.565    -153.799
  O      229.766    -192.336    -152.716
  O      227.547    -192.609    -151.515
  H      228.103    -192.158    -150.854
  H      227.509    -190.465    -155.523
  H      227.325    -192.219    -155.737
  H      228.924    -191.526    -155.334
  H      226.029    -194.358    -147.119
  H      226.251    -195.430    -148.481
  H      225.133    -195.855    -147.207

 3  4  5  6  7  8  9  10  11  12  13  23  28  29  30  31  32 0
 6-311+G(2d,p)
 ****
 33  34 0
 6-311+G(2d,p)
 ****
 1  2  14  15  16  17  18  19  20  21  22  24  25  26  27 0
 3-21G
 ****
 35  36  37  38  39  40  41  42  43  44  45 0
 3-21G
 ****


