%nproc=1
%NoSave
%Mem=1900MB
#P OB98/GEN NMR

erre ene a

0 1
  C      106.675      88.524    -143.225
  O      106.871      88.034    -144.540
  P      108.214      88.477    -145.299
  C      106.917      90.401    -146.475
  O      108.023      90.027    -145.659
  C      106.650      91.897    -146.356
  O      106.422      92.251    -144.981
  C      107.806      92.769    -146.816
  O      107.851      92.833    -148.228
  C      107.466      94.097    -146.147
  O      106.573      94.873    -146.963
  C      106.770      93.647    -144.841
  N      107.592      93.876    -143.664
  C      107.803      95.217    -143.320
  O      107.322      96.115    -144.013
  N      108.585      95.501    -142.229
  C      109.110      94.532    -141.545
  N      109.873      94.872    -140.470
  C      108.929      93.108    -141.886
  C      108.169      92.853    -142.951
  O      108.089      87.745    -146.715
  O      109.478      88.126    -144.587
  H      106.971      94.878    -147.858
  H      108.971      87.584    -147.101
  H      109.390      92.339    -141.283
  H      107.985      91.835    -143.272
  H      105.825      94.188    -144.708
  H      108.357      94.708    -145.981
  H      108.756      92.389    -146.422
  H      105.740      92.130    -146.926
  H      109.985      95.857    -140.266
  H      106.026      89.856    -146.147
  H      110.307      94.192    -139.861
  H      107.134      90.125    -147.512
  P      109.270      92.623    -148.938
  C      109.741      95.133    -149.181
  O      110.121      93.925    -148.549
  O      108.921      92.898    -150.479
  O      109.943      91.308    -148.741
  H      109.696      92.703    -151.035
  H      110.288      95.958    -148.718
  H      108.668      95.308    -149.062
  H      109.997      95.094    -150.244
  H      105.748      88.154    -142.841
  H      106.652      89.594    -143.243
  H      107.477      88.195    -142.598

 3  4  5  6  7  8  9  10  11  12  13  21  23  27  28  29  30  32 0
 6-311+G(2d,p)
 ****
 34  35 0
 6-311+G(2d,p)
 ****
 1  2  14  15  16  17  18  19  20  22  24  25  26 0
 3-21G
 ****
 31  33  36  37  38  39  40  41  42  43  44  45  46 0
 3-21G
 ****


