%nproc=1
%NoSave
%Mem=1900MB
#P OB98/GEN NMR

erre ene a

0 1
  C       -6.483      94.984      35.932
  O       -5.165      95.176      35.410
  P       -4.271      96.332      36.071
  C       -4.326      98.931      36.222
  O       -4.885      97.751      35.655
  C       -4.692     100.149      35.373
  O       -3.951     100.168      34.139
  C       -6.154     100.172      34.959
  O       -6.969     100.604      36.032
  C       -6.135     101.132      33.775
  O       -6.343     102.492      34.191
  C       -4.713     100.945      33.198
  N       -4.719     100.327      31.883
  C       -4.572     101.198      30.798
  O       -4.472     102.412      30.985
  N       -4.571     100.673      29.531
  C       -4.728      99.396      29.363
  N       -4.723      98.935      28.084
  C       -4.911      98.447      30.480
  C       -4.899      98.976      31.701
  O       -2.906      96.261      35.238
  O       -4.032      96.150      37.535
  H       -7.225     102.505      34.616
  H       -2.151      96.499      35.805
  H       -5.047      97.393      30.289
  H       -5.028      98.354      32.581
  H       -4.207     101.915      33.113
  H       -6.927     100.898      33.059
  H       -6.464      99.175      34.623
  H       -4.450     101.057      35.943
  H       -4.596      99.613      27.342
  H       -3.240      98.838      36.290
  H       -4.843      97.963      27.837
  H       -4.696      99.039      37.246
  P       -7.588      99.486      36.996
  C       -9.675      97.996      36.874
  O       -8.789      98.833      36.156
  O       -8.384     100.373      38.069
  O       -6.639      98.539      37.647
  H       -8.734      99.806      38.778
  H      -10.548      97.791      36.249
  H      -10.010      98.486      37.792
  H       -9.183      97.050      37.112
  H       -6.963      94.187      35.403
  H       -7.049      95.884      35.812
  H       -6.422      94.737      36.971

 3  4  5  6  7  8  9  10  11  12  13  21  23  27  28  29  30  32 0
 6-311+G(2d,p)
 ****
 34  35 0
 6-311+G(2d,p)
 ****
 1  2  14  15  16  17  18  19  20  22  24  25  26 0
 3-21G
 ****
 31  33  36  37  38  39  40  41  42  43  44  45  46 0
 3-21G
 ****


