%nproc=1
%NoSave
%Mem=1900MB
#P OB98/GEN NMR

erre ene a

0 1
  C     -642.800     292.803    -893.663
  O     -641.810     293.783    -893.833
  P     -642.125     295.333    -893.500
  C     -640.697     295.468    -891.353
  O     -642.023     295.482    -891.900
  C     -640.355     296.863    -890.807
  O     -641.279     297.261    -889.763
  C     -638.986     296.944    -890.150
  O     -637.860     296.770    -890.982
  C     -639.096     298.267    -889.407
  O     -638.861     299.384    -890.264
  C     -640.579     298.235    -888.940
  N     -640.716     297.925    -887.526
  C     -640.604     299.019    -886.654
  O     -640.425     300.166    -887.028
  N     -640.694     298.728    -885.315
  C     -640.820     297.473    -884.781
  O     -640.857     297.283    -883.564
  C     -640.908     296.366    -885.729
  C     -640.848     296.634    -887.039
  O     -643.388     295.856    -894.095
  O     -640.802     296.085    -893.992
  H     -638.002     299.258    -890.685
  H     -639.979     295.802    -893.555
  H     -640.599     299.493    -884.673
  H     -641.032     295.364    -885.341
  H     -640.910     295.834    -887.772
  H     -641.060     299.205    -889.134
  H     -638.364     298.337    -888.582
  H     -638.924     296.146    -889.394
  H     -640.457     297.598    -891.630
  H     -639.986     295.199    -892.133
  H     -640.636     294.710    -890.559
  P     -636.490     296.088    -890.471
  C     -637.128     293.671    -891.225
  O     -636.792     294.541    -890.162
  O     -635.672     296.849    -889.481
  O     -635.654     295.977    -891.861
  H     -634.705     296.042    -891.661
  H     -637.347     292.676    -890.829
  H     -636.295     293.602    -891.939
  H     -638.025     294.043    -891.740
  H     -642.405     291.846    -893.933
  H     -643.639     293.031    -894.287
  H     -643.111     292.784    -892.640

 3  4  5  6  7  8  9  10  11  12  13  23  28  29  30  31  32 0
 6-311+G(2d,p)
 ****
 33  34 0
 6-311+G(2d,p)
 ****
 1  2  14  15  16  17  18  19  20  21  22  24  25  26  27 0
 3-21G
 ****
 35  36  37  38  39  40  41  42  43  44  45 0
 3-21G
 ****


