%nproc=1
%NoSave
%Mem=1900MB
#P OB98/GEN NMR

erre ene a

0 1
  C      -87.521     294.792       8.387
  O      -88.761     294.952       7.718
  P      -89.875     293.790       7.727
  C      -90.077     291.507       6.530
  O      -89.227     292.576       6.900
  C      -89.267     290.222       6.344
  O      -88.556     289.941       7.578
  C      -90.111     288.981       6.007
  O      -89.329     288.170       5.121
  C      -90.273     288.304       7.351
  O      -90.579     286.925       7.235
  C      -88.914     288.605       7.994
  N      -88.945     288.499       9.448
  C      -89.052     287.224      10.001
  O      -89.143     286.225       9.286
  N      -89.055     287.100      11.372
  C      -89.042     288.159      12.118
  N      -88.984     287.983      13.467
  C      -89.040     289.533      11.568
  C      -88.966     289.623      10.243
  O      -91.222     294.213       7.257
  O      -89.848     293.229       9.220
  H      -91.470     286.839       6.848
  H      -90.419     293.747       9.838
  H      -89.054     290.383      12.232
  H      -88.934     290.586       9.755
  H      -88.145     287.933       7.588
  H      -91.085     288.787       7.907
  H      -91.057     289.238       5.523
  H      -88.512     290.397       5.567
  H      -88.813     287.039      13.795
  H      -90.554     291.759       5.578
  H      -88.652     288.721      14.075
  H      -90.860     291.373       7.284
  P      -90.079     287.012       4.292
  C      -91.380     284.845       4.871
  O      -90.529     285.875       5.324
  O      -88.850     286.306       3.535
  O      -91.095     287.463       3.292
  H      -89.177     285.877       2.725
  H      -91.580     284.159       5.704
  H      -90.908     284.280       4.064
  H      -92.336     285.258       4.527
  H      -86.930     295.674       8.258
  H      -87.001     293.951       7.978
  H      -87.697     294.630       9.430

 3  4  5  6  7  8  9  10  11  12  13  23  27  28  29  30  32 0
 6-311+G(2d,p)
 ****
 34  35 0
 6-311+G(2d,p)
 ****
 1  2  14  15  16  17  18  19  20  21  22  24  25  26 0
 3-21G
 ****
 31  33  36  37  38  39  40  41  42  43  44  45  46 0
 3-21G
 ****


