%nproc=1
%NoSave
%Mem=1900MB
#P OB98/GEN NMR

erre ene a

0 1
  C      835.963    -300.983     400.856
  O      835.492    -299.665     401.062
  P      834.255    -299.099     400.197
  C      833.369    -297.821     402.257
  O      833.846    -297.722     400.918
  C      834.242    -296.992     403.212
  O      834.250    -295.607     402.796
  C      833.762    -297.001     404.656
  O      834.109    -298.226     405.289
  C      834.464    -295.773     405.201
  O      835.823    -296.071     405.574
  C      834.432    -294.804     403.992
  N      833.380    -293.788     404.117
  C      833.578    -292.871     405.168
  O      834.542    -292.971     405.917
  N      832.625    -291.888     405.359
  C      831.565    -291.855     404.601
  N      830.659    -290.879     404.843
  C      831.318    -292.841     403.510
  C      832.259    -293.769     403.337
  O      833.135    -300.073     399.971
  O      834.964    -298.608     398.840
  H      835.762    -296.787     406.244
  H      835.218    -299.363     398.271
  H      830.432    -292.766     402.913
  H      832.159    -294.523     402.574
  H      835.396    -294.294     403.881
  H      833.961    -295.372     406.103
  H      832.663    -296.842     404.691
  H      835.270    -297.379     403.154
  H      830.850    -290.238     405.619
  H      833.402    -298.872     402.560
  H      829.786    -290.781     404.331
  H      832.334    -297.496     402.301
  P      832.985    -299.315     405.577
  C      834.878    -301.042     405.610
  O      833.697    -300.592     406.244
  O      832.062    -299.621     404.432
  O      832.161    -298.709     406.818
  H      831.215    -298.811     406.651
  H      835.436    -301.683     406.306
  H      835.513    -300.203     405.305
  H      834.622    -301.635     404.716
  H      836.782    -301.176     401.517
  H      836.289    -301.091     399.843
  H      835.174    -301.679     401.053

 3  4  5  6  7  8  9  10  11  12  13  23  27  28  29  30  32 0
 6-311+G(2d,p)
 ****
 34  35 0
 6-311+G(2d,p)
 ****
 1  2  14  15  16  17  18  19  20  21  22  24  25  26 0
 3-21G
 ****
 31  33  36  37  38  39  40  41  42  43  44  45  46 0
 3-21G
 ****


