%nproc=1
%NoSave
%Mem=1900MB
#P OB98/GEN NMR

erre ene a

0 1
  C     -285.614      38.948    -390.278
  O     -284.886      39.088    -389.072
  H     -285.099      39.506    -391.064
  H     -286.621      39.356    -390.158
  H     -285.664      37.895    -390.567
  P     -285.469      38.316    -387.792
  C     -285.005      40.322    -386.224
  O     -284.695      38.974    -386.550
  C     -284.048      40.846    -385.156
  O     -284.084      40.007    -383.988
  C     -282.587      40.890    -385.588
  O     -282.324      42.044    -386.369
  C     -281.892      40.952    -384.238
  O     -281.935      42.299    -383.728
  C     -282.771      40.034    -383.367
  N     -279.342      36.973    -381.084
  C     -279.445      38.318    -381.141
  N     -280.359      39.063    -381.801
  C     -281.230      38.279    -382.454
  C     -281.247      36.895    -382.489
  C     -280.253      36.231    -381.754
  N     -280.155      34.856    -381.689
  N     -282.293      36.438    -383.267
  C     -282.924      37.526    -383.650
  N     -282.300      38.670    -383.215
  O     -285.453      36.828    -387.871
  O     -286.924      38.975    -387.675
  H     -281.713      42.899    -384.463
  H     -286.885      39.925    -387.883
  H     -278.697      38.872    -380.580
  H     -283.843      37.546    -384.225
  H     -282.896      40.433    -382.353
  H     -280.840      40.669    -384.298
  H     -282.292      39.969    -386.101
  H     -284.395      41.841    -384.852
  H     -286.036      40.404    -385.871
  H     -279.318      34.467    -381.284
  H     -280.758      34.309    -382.286
  H     -284.906      40.912    -387.141
  P     -281.361      41.966    -387.646
  C     -279.493      43.616    -387.001
  O     -280.666      43.409    -387.782
  O     -282.004      41.470    -388.894
  O     -280.154      41.026    -387.181
  H     -279.870      40.451    -387.917
  H     -279.121      44.605    -387.172
  H     -278.748      42.901    -387.281
  H     -279.729      43.498    -385.964

 6  7  8  9  10  11  12  13  14  15  25  28  32  33  34  35 0
 6-311+G(2d,p)
 ****
 36  39  40 0
 6-311+G(2d,p)
 ****
 1  2  3  4  5  16  17  18  19  20  21  22  23  24 0
 3-21G
 ****
 26  27  29  30  31  37  38  41  42  43  44  45  46  47 0
 3-21G
 ****
 48 0
 3-21G
 ****


