%nproc=1
%NoSave
%Mem=1900MB
#P OB98/GEN NMR

erre ene a

0 1
  C       31.005     -59.236    -153.667
  O       29.898     -59.153    -152.792
  H       31.786     -58.560    -153.311
  H       30.710     -58.934    -154.676
  H       31.398     -60.256    -153.683
  P       28.614     -60.034    -153.184
  C       27.312     -57.954    -154.021
  O       27.852     -59.228    -154.344
  C       27.015     -57.162    -155.291
  O       28.235     -56.859    -156.002
  C       26.097     -57.877    -156.278
  O       24.735     -57.693    -155.927
  C       26.467     -57.183    -157.581
  O       25.805     -55.903    -157.692
  C       27.983     -56.999    -157.427
  N       29.664     -59.152    -161.674
  C       28.790     -58.098    -161.495
  N       28.262     -57.551    -162.612
  N       28.451     -57.627    -160.324
  C       29.010     -58.306    -159.294
  C       29.886     -59.366    -159.341
  C       30.294     -59.842    -160.645
  O       31.126     -60.717    -160.871
  N       30.244     -59.771    -158.080
  C       29.559     -58.980    -157.276
  N       28.791     -58.078    -157.964
  O       27.643     -59.863    -151.919
  O       28.885     -61.473    -153.463
  H       25.844     -55.605    -158.617
  H       27.192     -60.712    -151.754
  H       29.911     -59.453    -162.600
  H       29.592     -59.015    -156.194
  H       28.334     -56.079    -157.909
  H       26.156     -57.766    -158.449
  H       28.251     -58.042    -163.494
  H       26.349     -58.941    -156.349
  H       27.567     -56.828    -162.474
  H       26.577     -56.202    -154.984
  H       28.040     -57.406    -153.413
  H       26.392     -58.088    -153.444
  P       23.677     -58.799    -156.400
  C       23.019     -57.383    -158.475
  O       23.466     -58.639    -157.984
  O       22.300     -58.264    -155.781
  O       23.971     -60.184    -155.929
  H       22.051     -58.805    -155.008
  H       22.926     -57.429    -159.540
  H       23.726     -56.625    -158.211
  H       22.068     -57.149    -158.043

 6  7  8  9  10  11  12  13  14  15  26  29  33  34 0
 6-311+G(2d,p)
 ****
 36  38  39  40  41 0
 6-311+G(2d,p)
 ****
 1  2  3  4  5  16  17  18  19  20  21  22  23  24  25 0
 3-21G
 ****
 27  28  30  31  32  35  37  42  43  44  45  46  47 0
 3-21G
 ****
 48  49 0
 3-21G
 ****


