%nproc=1
%NoSave
%Mem=1900MB
#P OB98/GEN NMR

erre ene a

0 1
  C     -702.343     412.742      68.370
  O     -701.760     413.750      69.183
  P     -700.646     413.422      70.280
  C     -699.297     415.477      69.430
  O     -699.810     414.775      70.555
  C     -697.776     415.719      69.516
  O     -697.111     414.452      69.712
  C     -697.261     416.289      68.177
  O     -697.356     417.674      67.924
  C     -695.873     415.680      68.027
  O     -694.833     416.585      68.418
  C     -695.898     414.449      68.931
  N     -692.807     410.911      67.031
  C     -692.517     411.908      67.938
  N     -691.224     412.100      68.222
  N     -693.449     412.661      68.491
  C     -694.698     412.413      68.033
  C     -695.101     411.455      67.137
  C     -694.074     410.599      66.566
  O     -694.278     409.752      65.687
  N     -696.440     411.537      66.847
  C     -696.834     412.592      67.520
  N     -695.812     413.190      68.223
  O     -699.902     412.132      70.138
  O     -701.553     413.309      71.619
  H     -694.972     416.824      69.347
  H     -701.138     412.636      72.194
  H     -692.057     410.418      66.580
  H     -697.850     413.003      67.522
  H     -695.064     414.482      69.639
  H     -695.682     415.449      66.980
  H     -690.490     411.643      67.714
  H     -697.857     415.817      67.391
  H     -690.968     412.925      68.765
  H     -697.528     416.332      70.377
  H     -699.837     416.437      69.361
  H     -699.524     414.911      68.515
  P     -697.799     418.335      66.525
  C     -698.174     420.629      67.587
  O     -697.464     419.915      66.603
  O     -699.390     418.296      66.550
  O     -697.276     417.648      65.305
  H     -699.739     418.354      65.634
  H     -698.129     421.706      67.358
  H     -697.725     420.456      68.580
  H     -699.232     420.322      67.637
  H     -703.060     413.186      67.711
  H     -702.829     412.019      68.992
  H     -701.579     412.262      67.795

 3  4  5  6  7  8  9  10  11  12  23  26  30  31 0
 6-311+G(2d,p)
 ****
 33  35  36  37  38 0
 6-311+G(2d,p)
 ****
 1  2  13  14  15  16  17  18  19  20  21  22  24  25 0
 3-21G
 ****
 27  28  29  32  34  39  40  41  42  43  44  45  46  47  48  49 0
 3-21G
 ****


