%nproc=1
%NoSave
%Mem=1900MB
#P OB98/GEN NMR

erre ene a

0 1
  C      -32.874     586.117    -357.734
  O      -32.014     587.238    -357.815
  H      -32.349     585.213    -358.061
  H      -33.181     585.990    -356.692
  H      -33.764     586.277    -358.349
  P      -31.469     587.615    -359.278
  C      -28.971     587.219    -358.695
  O      -30.094     586.811    -359.469
  C      -28.145     588.243    -359.478
  O      -27.188     588.877    -358.600
  C      -27.329     587.659    -360.626
  O      -28.125     587.446    -361.782
  C      -26.316     588.775    -360.850
  O      -26.925     589.839    -361.606
  C      -26.035     589.247    -359.410
  N      -20.999     589.784    -358.674
  C      -21.920     590.595    -359.227
  N      -23.249     590.394    -359.375
  C      -23.602     589.207    -358.846
  C      -22.781     588.284    -358.225
  C      -21.412     588.599    -358.152
  N      -20.463     587.724    -357.639
  N      -23.508     587.172    -357.828
  C      -24.737     587.422    -358.217
  N      -24.852     588.642    -358.833
  O      -31.005     589.141    -359.099
  O      -32.464     587.469    -360.384
  H      -26.228     590.508    -361.755
  H      -31.713     589.734    -359.416
  H      -21.543     591.538    -359.624
  H      -25.581     586.756    -358.081
  H      -25.929     590.334    -359.344
  H      -25.429     588.447    -361.402
  H      -26.798     586.749    -360.325
  H      -28.831     589.026    -359.840
  H      -28.349     586.351    -358.472
  H      -19.542     587.843    -358.046
  H      -20.798     586.773    -357.516
  H      -29.328     587.658    -357.761
  P      -28.212     585.951    -362.366
  C      -27.036     586.513    -364.602
  O      -26.971     585.786    -363.382
  O      -29.484     586.017    -363.331
  O      -28.361     584.875    -361.344
  H      -30.135     585.332    -363.070
  H      -26.158     586.317    -365.181
  H      -27.098     587.560    -364.390
  H      -27.901     586.209    -365.153

 6  7  8  9  10  11  12  13  14  15  25  28  32  33  34  35 0
 6-311+G(2d,p)
 ****
 36  39  40 0
 6-311+G(2d,p)
 ****
 1  2  3  4  5  16  17  18  19  20  21  22  23  24 0
 3-21G
 ****
 26  27  29  30  31  37  38  41  42  43  44  45  46  47  48 0
 3-21G
 ****


