%nproc=1
%NoSave
%Mem=1900MB
#P OB98/GEN NMR

erre ene a

0 1
  C       64.929      17.057     -48.374
  O       63.776      17.625     -48.959
  H       64.631      16.496     -47.484
  H       65.621      17.847     -48.072
  H       65.426      16.373     -49.066
  P       63.888      18.273     -50.420
  C       61.382      18.040     -50.981
  O       62.461      18.931     -50.741
  C       60.064      18.808     -51.111
  O       59.570      19.111     -49.770
  C       60.189      20.148     -51.865
  O       58.949      20.370     -52.549
  C       60.357      21.117     -50.710
  O       60.175      22.449     -51.113
  C       59.339      20.534     -49.728
  N       59.471      21.054     -48.373
  C       58.708      22.168     -48.039
  O       57.921      22.715     -48.809
  N       58.885      22.652     -46.770
  C       59.735      22.146     -45.832
  O       59.839      22.606     -44.701
  C       60.537      20.986     -46.254
  C       60.370      20.501     -47.485
  O       64.425      17.378     -51.487
  O       64.828      19.550     -50.195
  H       65.745      19.329     -50.443
  H       59.930      23.010     -50.347
  H       58.339      23.459     -46.511
  H       61.236      20.575     -45.539
  H       60.945      19.648     -47.831
  H       58.317      20.705     -50.081
  H       61.370      21.049     -50.303
  H       61.012      20.157     -52.584
  H       59.318      18.157     -51.583
  H       61.322      17.341     -50.141
  H       61.577      17.477     -51.900
  P       58.840      21.174     -53.935
  C       57.343      19.436     -55.113
  O       57.468      20.780     -54.671
  O       60.043      21.027     -54.809
  O       58.628      22.706     -53.524
  H       59.089      23.277     -54.167
  H       56.391      19.302     -55.583
  H       57.422      18.776     -54.275
  H       58.121      19.217     -55.814

 6  7  8  9  10  11  12  13  14  15  16  27  31  32  33  34  35 0
 6-311+G(2d,p)
 ****
 36  37 0
 6-311+G(2d,p)
 ****
 1  2  3  4  5  17  18  19  20  21  22  23  24  25 0
 3-21G
 ****
 26  28  29  30  38  39  40  41  42  43  44  45 0
 3-21G
 ****


