%nproc=1
%NoSave
%Mem=1900MB
#P OB98/GEN NMR

erre ene a

0 1
  C       79.772    -103.883     130.269
  O       80.762    -102.876     130.250
  H       79.035    -103.664     129.490
  H       79.262    -103.890     131.236
  H       80.209    -104.865     130.070
  P       82.060    -103.051     131.172
  C       84.528    -102.328     130.907
  O       83.168    -102.038     130.611
  C       85.448    -101.226     130.363
  O       85.344    -101.213     128.904
  C       85.097     -99.804     130.858
  O       86.326     -99.059     130.897
  C       84.193     -99.325     129.735
  O       83.938     -97.948     129.798
  C       84.981     -99.858     128.534
  N       84.267     -99.855     127.261
  C       85.025     -99.692     126.104
  O       86.248     -99.559     126.071
  N       84.312     -99.683     124.928
  C       82.959     -99.833     124.805
  O       82.383     -99.846     123.721
  C       82.221     -99.991     126.064
  C       82.899     -99.997     127.212
  O       82.533    -104.453     131.371
  O       81.632    -102.371     132.561
  H       81.401    -103.067     133.207
  H       84.781     -97.472     129.969
  H       84.841     -99.572     124.078
  H       81.141    -100.100     126.005
  H       82.377    -100.124     128.160
  H       85.916     -99.299     128.424
  H       83.217     -99.817     129.809
  H       84.634     -99.796     131.850
  H       86.489    -101.484     130.608
  H       84.781    -103.285     130.435
  H       84.649    -102.417     131.987
  P       87.148     -98.781     132.243
  C       89.631     -98.719     132.973
  O       88.713     -98.807     131.888
  O       86.778     -99.680     133.382
  O       86.866     -97.246     132.607
  H       86.960     -97.116     133.565
  H       90.632     -98.748     132.596
  H       89.477     -99.543     133.638
  H       89.474     -97.801     133.499

 6  7  8  9  10  11  12  13  14  15  16  27  31  32  33  34  35 0
 6-311+G(2d,p)
 ****
 36  37 0
 6-311+G(2d,p)
 ****
 1  2  3  4  5  17  18  19  20  21  22  23  24  25 0
 3-21G
 ****
 26  28  29  30  38  39  40  41  42  43  44  45 0
 3-21G
 ****


