%nproc=1
%NoSave
%Mem=1900MB
#P OB98/GEN NMR

erre ene a

0 1
  C       96.083    -788.404    -686.503
  O       96.146    -789.800    -686.628
  P       97.377    -790.497    -687.404
  C       98.133    -791.646    -685.216
  O       97.711    -791.825    -686.582
  C       98.218    -792.983    -684.504
  O       96.997    -793.723    -684.600
  C       99.296    -793.917    -685.062
  O      100.587    -793.517    -684.644
  C       98.831    -795.273    -684.513
  O       99.279    -795.437    -683.167
  C       97.284    -795.129    -684.554
  N       96.719    -795.824    -685.690
  C       97.041    -797.201    -685.808
  O       97.831    -797.705    -684.980
  N       96.570    -797.918    -686.858
  C       95.814    -797.345    -687.754
  N       95.365    -798.108    -688.778
  C       95.439    -795.896    -687.697
  C       95.941    -795.221    -686.659
  O       98.522    -789.594    -687.695
  O       96.663    -791.082    -688.743
  H       98.930    -796.308    -682.859
  H       96.461    -790.338    -689.382
  H       94.838    -795.460    -688.461
  H       95.730    -794.173    -686.521
  H       96.853    -795.512    -683.625
  H       99.211    -796.105    -685.101
  H       99.228    -793.924    -686.157
  H       98.420    -792.787    -683.433
  H       95.647    -799.076    -688.800
  H       97.369    -791.024    -684.718
  H       94.786    -797.737    -689.541
  H       99.082    -791.104    -685.197
  P      101.888    -794.159    -685.320
  C      102.564    -792.096    -686.726
  O      102.914    -792.935    -685.652
  O      101.624    -795.104    -686.449
  O      102.605    -794.903    -684.095
  H      102.898    -795.799    -684.414
  H      103.135    -791.169    -686.625
  H      101.490    -791.890    -686.707
  H      102.830    -792.587    -687.656
  H       95.201    -788.134    -685.961
  H       96.054    -787.960    -687.476
  H       96.946    -788.054    -685.976

 3  4  5  6  7  8  9  10  11  12  13  23  27  28  29  30  32 0
 6-311+G(2d,p)
 ****
 34  35 0
 6-311+G(2d,p)
 ****
 1  2  14  15  16  17  18  19  20  21  22  24  25  26 0
 3-21G
 ****
 31  33  36  37  38  39  40  41  42  43  44  45  46 0
 3-21G
 ****


