%nproc=1
%NoSave
%Mem=1900MB
#P OB98/GEN NMR

erre ene a

0 1
  C     -656.417     -93.095    -524.880
  O     -655.076     -93.485    -525.116
  P     -653.861     -92.583    -524.600
  C     -652.455     -94.225    -523.222
  O     -653.398     -93.160    -523.172
  C     -651.651     -94.314    -521.926
  O     -650.941     -93.058    -521.720
  C     -652.492     -94.573    -520.665
  O     -651.685     -95.373    -519.790
  C     -652.651     -93.183    -520.072
  O     -652.975     -93.203    -518.689
  C     -651.284     -92.588    -520.399
  N     -651.339     -88.447    -517.403
  C     -651.396     -89.763    -517.116
  N     -651.409     -90.807    -517.972
  C     -651.334     -90.379    -519.242
  C     -651.302     -89.067    -519.694
  C     -651.287     -88.069    -518.703
  N     -651.192     -86.720    -518.980
  N     -651.294     -89.032    -521.074
  C     -651.324     -90.297    -521.446
  N     -651.286     -91.144    -520.375
  O     -654.107     -91.111    -524.624
  O     -652.646     -92.983    -525.562
  H     -652.208     -93.559    -518.201
  H     -652.480     -92.263    -526.202
  H     -651.442     -90.020    -516.058
  H     -651.377     -90.647    -522.467
  H     -650.509     -92.935    -519.707
  H     -653.454     -92.650    -520.606
  H     -653.445     -95.063    -520.864
  H     -650.891     -95.096    -522.048
  H     -651.773     -94.033    -524.057
  H     -651.052     -86.100    -518.194
  H     -650.884     -86.426    -519.904
  H     -652.973     -95.170    -523.410
  P     -652.254     -96.763    -519.226
  C     -652.151     -97.950    -521.488
  O     -652.993     -97.481    -520.449
  O     -653.049     -96.658    -517.965
  O     -650.934     -97.649    -519.024
  H     -651.132     -98.395    -518.432
  H     -651.890     -97.114    -522.146
  H     -652.689     -98.706    -522.069
  H     -651.234     -98.394    -521.089
  H     -657.079     -93.824    -525.299
  H     -656.598     -92.144    -525.337
  H     -656.587     -93.023    -523.826

 3  4  5  6  7  8  9  10  11  12  22  25  29  30  31  32 0
 6-311+G(2d,p)
 ****
 33  36  37 0
 6-311+G(2d,p)
 ****
 1  2  13  14  15  16  17  18  19  20  21  23  24  26 0
 3-21G
 ****
 27  28  34  35  38  39  40  41  42  43  44  45  46  47  48 0
 3-21G
 ****


