%nproc=1
%NoSave
%Mem=1900MB
#P OB98/GEN NMR

erre ene a

0 1
  C       95.965     -73.165     -26.264
  O       95.869     -71.836     -26.723
  P       96.774     -71.236     -27.893
  C       98.516     -70.237     -26.216
  O       98.272     -71.069     -27.345
  C      100.019     -70.150     -25.912
  O      100.479     -71.458     -25.480
  C      100.829     -69.783     -27.165
  O      101.874     -68.845     -26.930
  C      101.225     -71.142     -27.725
  O      102.334     -71.093     -28.610
  C      101.427     -71.955     -26.450
  N      103.318     -76.311     -28.259
  C      103.945     -75.092     -28.104
  N      105.167     -74.974     -28.669
  N      103.400     -74.074     -27.484
  C      102.132     -74.307     -27.072
  C      101.409     -75.474     -27.169
  C      102.036     -76.599     -27.825
  O      101.475     -77.665     -28.086
  N      100.130     -75.322     -26.705
  C      100.063     -74.052     -26.355
  N      101.245     -73.387     -26.593
  O       96.185     -70.112     -28.684
  O       96.917     -72.505     -28.880
  H      102.122     -70.450     -29.313
  H       96.952     -72.156     -29.795
  H      103.760     -77.034     -28.819
  H       99.184     -73.557     -25.960
  H      102.428     -71.819     -26.040
  H      100.377     -71.522     -28.303
  H      105.545     -75.688     -29.275
  H      100.192     -69.270     -27.897
  H      105.532     -74.032     -28.787
  H      100.180     -69.449     -25.085
  H       97.988     -70.701     -25.373
  H       98.095     -69.243     -26.371
  P      102.218     -67.506     -27.725
  C      104.119     -68.616     -29.042
  O      102.901     -67.902     -29.122
  O      103.425     -66.840     -26.918
  O      101.082     -66.544     -27.847
  H      103.307     -65.869     -26.893
  H      104.610     -68.581     -30.021
  H      103.918     -69.661     -28.785
  H      104.783     -68.175     -28.293
  H       95.256     -73.323     -25.478
  H       96.953     -73.344     -25.894
  H       95.759     -73.837     -27.071

 3  4  5  6  7  8  9  10  11  12  23  26  30  31 0
 6-311+G(2d,p)
 ****
 33  35  36  37  38 0
 6-311+G(2d,p)
 ****
 1  2  13  14  15  16  17  18  19  20  21  22  24  25 0
 3-21G
 ****
 27  28  29  32  34  39  40  41  42  43  44  45  46  47  48  49 0
 3-21G
 ****


