%nproc=1
%NoSave
%Mem=1900MB
#P OB98/GEN NMR

erre ene a

0 1
  C     -662.438      -5.102    -163.788
  O     -662.740      -4.675    -165.102
  P     -661.832      -3.514    -165.737
  C     -662.068      -4.377    -168.176
  O     -662.328      -3.313    -167.249
  C     -662.636      -4.049    -169.551
  O     -664.085      -4.161    -169.508
  C     -662.292      -2.643    -170.060
  O     -661.921      -2.722    -171.455
  C     -663.618      -1.899    -169.986
  O     -663.687      -0.820    -170.909
  C     -664.597      -3.045    -170.267
  N     -669.023      -1.377    -172.053
  C     -667.890      -1.779    -172.742
  N     -667.925      -1.666    -174.086
  N     -666.823      -2.241    -172.155
  C     -666.932      -2.331    -170.810
  C     -668.005      -1.980    -170.022
  C     -669.161      -1.410    -170.680
  O     -670.158      -0.947    -170.121
  N     -667.760      -2.245    -168.689
  C     -666.539      -2.745    -168.667
  N     -665.979      -2.778    -169.926
  O     -660.400      -4.236    -165.904
  O     -661.708      -2.268    -164.926
  H     -664.464      -0.284    -170.668
  H     -659.710      -3.708    -165.437
  H     -669.817      -1.009    -172.555
  H     -666.003      -3.072    -167.789
  H     -664.565      -3.319    -171.328
  H     -663.746      -1.503    -168.974
  H     -668.731      -1.335    -174.607
  H     -661.499      -2.138    -169.494
  H     -667.112      -1.968    -174.615
  H     -662.285      -4.815    -170.265
  H     -662.527      -5.295    -167.797
  H     -660.981      -4.527    -168.233
  P     -660.473      -2.123    -171.832
  C     -660.421      -3.938    -173.696
  O     -660.188      -2.588    -173.333
  O     -659.464      -3.019    -170.942
  O     -660.320      -0.653    -171.552
  H     -658.631      -2.530    -170.790
  H     -660.937      -4.505    -172.893
  H     -659.462      -4.428    -173.891
  H     -661.026      -3.966    -174.600
  H     -663.120      -5.874    -163.498
  H     -662.528      -4.275    -163.115
  H     -661.437      -5.480    -163.757

 3  4  5  6  7  8  9  10  11  12  23  26  30  31  33  0
 6-311+G(2d,p)
 ****
 35  36  37  38 0
 6-311+G(2d,p)
 ****
 1  2  13  14  15  16  17  18  19  20  21  22  24  25  27  28  29 0
 3-21G
 ****
 32  34  39  40  41  42  43  44  45  46  47  48  49 0
 3-21G
 ****


