%nproc=1
%NoSave
%Mem=1900MB
#P OB98/GEN NMR

erre ene a

0 1
  C     -131.186     254.196    -182.651
  O     -132.315     253.564    -182.083
  H     -131.486     255.176    -183.027
  H     -130.801     253.606    -183.485
  H     -130.400     254.336    -181.900
  P     -132.123     252.162    -181.334
  C     -132.764     250.817    -183.440
  O     -131.763     251.078    -182.462
  C     -132.798     249.327    -183.764
  O     -131.532     248.906    -184.328
  C     -133.028     248.434    -182.546
  O     -134.385     248.468    -182.145
  C     -132.548     247.098    -183.088
  O     -133.548     246.483    -183.916
  C     -131.328     247.526    -183.940
  N     -130.055     247.361    -183.235
  C     -129.516     246.077    -183.238
  O     -130.055     245.120    -183.790
  N     -128.346     245.923    -182.543
  C     -127.731     246.883    -181.787
  O     -126.813     246.645    -181.006
  C     -128.305     248.234    -181.882
  C     -129.432     248.406    -182.579
  O     -133.223     251.764    -180.405
  O     -130.732     252.339    -180.554
  H     -130.913     252.532    -179.613
  H     -134.341     246.370    -183.355
  H     -127.968     244.987    -182.497
  H     -127.810     249.036    -181.349
  H     -129.891     249.386    -182.639
  H     -131.282     246.939    -184.869
  H     -132.313     246.386    -182.293
  H     -132.370     248.742    -181.727
  H     -133.576     249.158    -184.521
  H     -132.518     251.380    -184.347
  H     -133.735     251.157    -183.061
  P     -134.797     248.306    -180.605
  C     -135.509     245.844    -180.698
  O     -134.561     246.776    -180.189
  O     -136.144     248.846    -180.250
  O     -133.642     249.078    -179.803
  H     -134.053     249.730    -179.203
  H     -135.258     244.860    -180.361
  H     -135.495     245.869    -181.768
  H     -136.487     246.102    -180.348

 6  7  8  9  10  11  12  13  14  15  16  27  31  32  33  34  35 0
 6-311+G(2d,p)
 ****
 36  37 0
 6-311+G(2d,p)
 ****
 1  2  3  4  5  17  18  19  20  21  22  23  24  25 0
 3-21G
 ****
 26  28  29  30  38  39  40  41  42  43  44  45 0
 3-21G
 ****


