%nproc=1
%NoSave
%Mem=1900MB
#P OB98/GEN NMR

erre ene a

0 1
  C      467.100     377.670    -396.175
  O      465.996     378.586    -396.153
  P      465.927     379.657    -394.964
  C      465.357     377.848    -393.175
  O      466.233     378.886    -393.588
  C      465.796     377.273    -391.832
  O      465.594     378.218    -390.754
  C      465.052     376.002    -391.428
  O      465.600     374.849    -392.035
  C      465.310     375.979    -389.929
  O      466.631     375.443    -389.675
  C      465.258     377.471    -389.561
  N      462.484     378.382    -385.429
  C      463.794     377.980    -385.537
  N      464.475     377.810    -384.384
  N      464.393     377.774    -386.687
  C      463.595     378.002    -387.755
  C      462.278     378.395    -387.772
  C      461.627     378.619    -386.490
  O      460.447     378.953    -386.332
  N      461.802     378.517    -389.048
  C      462.838     378.223    -389.811
  N      463.945     377.876    -389.072
  O      464.359     379.968    -394.857
  O      466.727     380.895    -395.210
  H      466.651     374.553    -390.080
  H      464.231     380.871    -394.507
  H      462.062     378.525    -384.513
  H      462.832     378.222    -390.898
  H      465.982     377.737    -388.783
  H      464.605     375.343    -389.390
  H      464.092     377.996    -383.475
  H      463.968     376.108    -391.625
  H      465.461     377.546    -384.455
  H      466.876     377.045    -391.895
  H      465.328     377.053    -393.936
  H      464.333     378.244    -393.129
  P      464.827     374.224    -393.300
  C      463.476     372.688    -391.711
  O      463.443     373.649    -392.739
  O      465.691     372.914    -393.631
  O      464.735     375.142    -394.484
  H      465.664     372.734    -394.592
  H      462.455     372.531    -391.333
  H      464.100     373.026    -390.868
  H      463.865     371.732    -392.088
  H      467.009     377.022    -397.021
  H      467.098     377.087    -395.278
  H      468.017     378.218    -396.242

 3  4  5  6  7  8  9  10  11  12  23  26  30  31 0
 6-311+G(2d,p)
 ****
 33  35  36  37  38 0
 6-311+G(2d,p)
 ****
 1  2  13  14  15  16  17  18  19  20  21  22  24  25 0
 3-21G
 ****
 27  28  29  32  34  39  40  41  42  43  44  45  46  47  48  49 0
 3-21G
 ****


