%nproc=1
%NoSave
%Mem=1900MB
#P OB98/GEN NMR

erre ene a

0 1
  C     -863.857     -55.974     -51.451
  O     -864.118     -54.910     -50.555
  H     -863.300     -56.768     -50.944
  H     -864.812     -56.378     -51.805
  H     -863.291     -55.607     -52.313
  P     -862.838     -54.159     -49.945
  C     -863.721     -51.793     -50.551
  O     -863.337     -52.690     -49.525
  C     -864.362     -50.548     -49.955
  O     -865.574     -50.893     -49.256
  C     -863.498     -49.814     -48.922
  O     -862.519     -48.998     -49.541
  C     -864.555     -48.981     -48.209
  O     -864.874     -47.821     -48.998
  C     -865.757     -49.938     -48.177
  N     -868.021     -50.047     -43.580
  C     -868.164     -49.225     -44.647
  N     -867.545     -49.274     -45.839
  C     -866.705     -50.318     -45.898
  C     -866.460     -51.262     -44.907
  C     -867.167     -51.099     -43.703
  N     -866.947     -51.914     -42.587
  N     -865.514     -52.180     -45.324
  C     -865.179     -51.784     -46.532
  N     -865.870     -50.672     -46.923
  O     -861.930     -53.895     -51.246
  O     -862.093     -54.917     -48.894
  H     -864.027     -47.377     -49.194
  H     -861.255     -54.594     -51.311
  H     -868.880     -48.413     -44.512
  H     -864.439     -52.275     -47.158
  H     -866.707     -49.425     -48.353
  H     -864.225     -48.626     -47.224
  H     -863.052     -50.525     -48.202
  H     -864.635     -49.869     -50.779
  H     -864.443     -52.284     -51.220
  H     -867.122     -51.442     -41.714
  H     -866.119     -52.500     -42.655
  H     -862.832     -51.522     -51.129
  P     -861.151     -48.740     -48.745
  C     -859.633     -49.051     -50.829
  O     -860.099     -48.159     -49.808
  O     -860.616     -50.226     -48.461
  O     -861.281     -47.966     -47.475
  H     -860.471     -50.347     -47.492
  H     -858.942     -48.537     -51.464
  H     -860.464     -49.394     -51.410
  H     -859.145     -49.889     -50.376

 6  7  8  9  10  11  12  13  14  15  25  28  32  33  34  35 0
 6-311+G(2d,p)
 ****
 36  39  40 0
 6-311+G(2d,p)
 ****
 1  2  3  4  5  16  17  18  19  20  21  22  23  24 0
 3-21G
 ****
 26  27  29  30  31  37  38  41  42  43  44  45  46  47  48 0
 3-21G
 ****


