%nproc=1
%NoSave
%Mem=1900MB
#P OB98/GEN NMR

erre ene a

0 1
  C     -519.035     219.314      12.638
  O     -520.193     220.089      12.836
  H     -518.209     219.771      13.189
  H     -518.765     219.295      11.577
  H     -519.178     218.296      13.007
  P     -521.556     219.667      12.100
  C     -522.528     218.770      14.304
  O     -522.152     218.451      12.970
  C     -522.878     217.509      15.099
  O     -521.736     216.604      15.112
  C     -523.273     217.780      16.559
  O     -524.464     217.064      16.883
  C     -522.097     217.226      17.355
  O     -522.449     216.864      18.679
  C     -521.654     216.065      16.445
  N     -520.326     215.591      16.771
  C     -520.255     214.357      17.453
  O     -521.292     213.758      17.730
  N     -519.034     213.892      17.855
  C     -517.965     214.594      17.622
  N     -516.795     214.084      18.067
  C     -517.996     215.909      16.935
  C     -519.190     216.339      16.541
  O     -521.420     219.398      10.638
  O     -522.577     220.859      12.424
  H     -523.189     216.222      18.640
  H     -523.293     220.857      11.741
  H     -517.077     216.458      16.784
  H     -519.313     217.291      16.030
  H     -522.357     215.226      16.514
  H     -521.302     217.979      17.402
  H     -523.430     218.838      16.765
  H     -523.678     216.976      14.561
  H     -516.818     213.194      18.540
  H     -523.388     219.455      14.263
  H     -515.903     214.553      17.980
  H     -521.686     219.277      14.789
  P     -525.778     217.444      16.048
  C     -526.059     215.073      15.021
  O     -525.851     216.460      14.774
  O     -525.413     218.871      15.406
  O     -527.015     217.507      16.877
  H     -525.945     219.564      15.831
  H     -526.085     214.545      14.091
  H     -526.988     214.938      15.535
  H     -525.260     214.694      15.623

 6  7  8  9  10  11  12  13  14  15  16  26  30  31  32  33  35 0
 6-311+G(2d,p)
 ****
 37  38 0
 6-311+G(2d,p)
 ****
 1  2  3  4  5  17  18  19  20  21  22  23  24  25 0
 3-21G
 ****
 27  28  29  34  36  39  40  41  42  43  44  45  46 0
 3-21G
 ****


