%nproc=1
%NoSave
%Mem=1900MB
#P OB98/GEN NMR

erre ene a

0 1
  C     -890.670    -898.580    -899.299
  O     -890.250    -898.920    -897.989
  P     -890.790    -898.000    -896.789
  C     -893.170    -899.060    -897.039
  O     -892.380    -897.860    -897.009
  C     -894.160    -899.080    -895.899
  O     -893.450    -899.190    -894.649
  C     -895.070    -897.850    -895.819
  O     -896.380    -898.290    -895.409
  C     -894.460    -897.040    -894.719
  O     -895.430    -896.160    -894.119
  C     -893.920    -898.130    -893.789
  N     -892.860    -897.640    -892.909
  C     -893.170    -896.560    -892.069
  O     -894.270    -896.030    -892.159
  N     -892.220    -896.100    -891.189
  C     -891.020    -896.590    -891.239
  N     -890.100    -896.100    -890.359
  C     -890.610    -897.650    -892.209
  C     -891.580    -898.140    -892.969
  O     -890.240    -896.560    -897.169
  O     -890.350    -898.450    -895.419
  H     -894.980    -895.700    -893.359
  H     -890.040    -896.040    -896.359
  H     -889.580    -898.010    -892.209
  H     -891.380    -898.920    -893.679
  H     -894.730    -898.540    -893.159
  H     -893.650    -896.430    -895.099
  H     -895.160    -897.330    -896.779
  H     -894.770    -900.000    -895.999
  H     -890.400    -895.370    -889.739
  H     -892.500    -899.920    -896.939
  H     -889.140    -896.420    -890.309
  H     -893.660    -899.110    -898.009
  P     -897.590    -897.260    -895.569
  C     -899.190    -898.530    -897.149
  O     -898.180    -897.540    -897.039
  O     -896.810    -895.870    -895.799
  O     -898.590    -897.150    -894.449
  H     -897.450    -895.150    -895.849
  H     -899.590    -898.510    -898.149
  H     -900.000    -898.330    -896.439
  H     -898.760    -899.520    -896.939
  H     -890.243    -899.266    -900.000
  H     -890.347    -897.587    -899.531
  H     -891.737    -898.630    -899.356

 3  4  5  6  7  8  9  10  11  12  13  21  23  27  28  29  30  32 0
 6-311+G(2d,p)
 ****
 34  35 0
 6-311+G(2d,p)
 ****
 1  2  14  15  16  17  18  19  20  22  24  25  26 0
 3-21G
 ****
 31  33  36  37  38  39  40  41  42  43  44  45  46 0
 3-21G
 ****


