%nproc=1
%NoSave
%Mem=1900MB
#P OB98/GEN NMR

erre ene a

0 1
  C      303.941     -22.146    -331.329
  O      305.128     -21.459    -331.740
  P      306.434     -22.309    -332.115
  C      307.158     -21.017    -334.219
  O      307.475     -21.354    -332.878
  C      308.180     -20.020    -334.789
  O      307.948     -18.687    -334.250
  C      309.630     -20.402    -334.438
  O      310.521     -20.012    -335.493
  C      309.929     -19.528    -333.232
  O      311.333     -19.360    -333.037
  C      309.170     -18.251    -333.617
  N      309.851     -13.610    -331.542
  C      310.205     -14.116    -332.743
  N      309.972     -15.357    -333.233
  C      309.284     -16.099    -332.352
  C      308.850     -15.713    -331.089
  C      309.164     -14.405    -330.682
  N      308.830     -13.898    -329.447
  N      308.173     -16.742    -330.466
  C      308.253     -17.755    -331.317
  N      308.879     -17.399    -332.481
  O      306.177     -23.625    -332.773
  O      307.136     -22.511    -330.682
  H      311.449     -18.750    -332.289
  H      307.473     -23.434    -330.619
  H      310.755     -13.443    -333.392
  H      307.875     -18.756    -331.135
  H      309.733     -17.654    -334.345
  H      309.502     -19.981    -332.328
  H      309.780     -21.467    -334.221
  H      308.050     -19.956    -335.879
  H      306.153     -20.578    -334.264
  H      309.198     -12.994    -329.198
  H      308.456     -14.519    -328.743
  H      307.119     -21.931    -334.822
  P      311.015     -21.196    -336.471
  C      310.970     -19.564    -338.520
  O      311.704     -20.467    -337.719
  O      309.938     -22.187    -336.792
  O      312.239     -21.825    -335.648
  H      312.888     -21.170    -335.328
  H      311.650     -19.083    -339.226
  H      310.509     -18.792    -337.907
  H      310.197     -20.103    -339.081
  H      303.171     -21.433    -331.118
  H      304.147     -22.719    -330.449
  H      303.618     -22.799    -332.112

 3  4  5  6  7  8  9  10  11  12  22  25  29  30  31  32 0
 6-311+G(2d,p)
 ****
 33  36  37 0
 6-311+G(2d,p)
 ****
 1  2  13  14  15  16  17  18  19  20  21  23  24  26 0
 3-21G
 ****
 27  28  34  35  38  39  40  41  42  43  44  45  46  47  48 0
 3-21G
 ****


