%nproc=1
%NoSave
%Mem=1900MB
#P OB98/GEN NMR

erre ene a

0 1
  C     -439.856     138.597      62.897
  O     -438.628     139.296      62.990
  H     -440.582     139.223      62.367
  H     -440.245     138.382      63.897
  H     -439.719     137.662      62.344
  P     -437.463     138.585      63.838
  C     -437.469     140.576      65.526
  O     -437.660     139.182      65.319
  C     -437.174     140.847      67.000
  O     -438.358     140.651      67.802
  C     -436.117     139.930      67.610
  O     -434.787     140.285      67.262
  C     -436.393     140.166      69.090
  O     -435.873     141.449      69.478
  C     -437.937     140.147      69.098
  N     -438.498     138.812      69.347
  C     -438.358     138.299      70.640
  O     -437.780     138.944      71.519
  N     -438.836     137.040      70.909
  C     -439.432     136.367      69.978
  N     -439.882     135.115      70.300
  C     -439.617     136.871      68.598
  C     -439.130     138.086      68.359
  O     -436.135     139.327      63.338
  O     -437.410     137.098      63.761
  H     -434.929     141.451      69.242
  H     -435.368     139.069      63.906
  H     -440.105     136.265      67.852
  H     -439.231     138.526      67.373
  H     -438.328     140.838      69.858
  H     -435.922     139.424      69.733
  H     -436.316     138.878      67.375
  H     -436.885     141.903      67.094
  H     -439.693     134.771      71.231
  H     -438.386     141.099      65.228
  H     -440.220     134.459      69.609
  H     -436.636     140.937      64.917
  P     -433.626     139.245      67.626
  C     -432.610     140.772      69.480
  O     -433.212     139.522      69.150
  O     -432.372     139.783      66.793
  O     -433.937     137.813      67.296
  H     -431.804     139.046      66.489
  H     -432.396     140.799      70.528
  H     -433.281     141.568      69.233
  H     -431.701     140.887      68.927

 6  7  8  9  10  11  12  13  14  15  16  26  30  31  32  33  35 0
 6-311+G(2d,p)
 ****
 37  38 0
 6-311+G(2d,p)
 ****
 1  2  3  4  5  17  18  19  20  21  22  23  24  25 0
 3-21G
 ****
 27  28  29  34  36  39  40  41  42  43  44  45  46 0
 3-21G
 ****


