%nproc=1
%NoSave
%Mem=1900MB
#P OB98/GEN NMR

erre ene a

0 1
  C      -21.105    -153.874       3.896
  O      -20.185    -153.797       4.967
  H      -21.088    -152.946       3.319
  H      -20.817    -154.701       3.242
  H      -22.114    -154.059       4.275
  P      -20.433    -152.623       6.032
  C      -18.041    -151.645       6.158
  O      -19.044    -152.407       6.813
  C      -16.879    -152.549       5.752
  O      -16.248    -153.046       6.962
  C      -17.292    -153.759       4.898
  O      -16.471    -153.855       3.729
  C      -17.012    -154.955       5.789
  O      -16.575    -156.097       5.062
  C      -15.938    -154.425       6.730
  N      -13.277    -157.823       9.443
  C      -12.911    -157.004       8.435
  N      -13.642    -156.052       7.820
  C      -14.866    -155.966       8.368
  C      -15.375    -156.717       9.415
  C      -14.526    -157.701       9.948
  N      -14.917    -158.575      10.939
  N      -16.676    -156.347       9.698
  C      -16.964    -155.419       8.808
  N      -15.905    -155.166       7.974
  O      -21.379    -153.314       7.126
  O      -21.058    -151.393       5.467
  H      -15.719    -155.871       4.652
  H      -22.226    -152.832       7.158
  H      -11.896    -157.132       8.068
  H      -17.925    -154.935       8.692
  H      -14.940    -154.473       6.276
  H      -17.928    -155.217       6.333
  H      -18.345    -153.722       4.599
  H      -16.131    -151.945       5.224
  H      -17.668    -150.869       6.835
  H      -14.289    -159.324      11.182
  H      -15.883    -158.560      11.240
  H      -18.476    -151.163       5.277
  P      -17.227    -154.220       2.356
  C      -15.800    -156.330       1.839
  O      -16.199    -155.028       1.422
  O      -17.374    -152.800       1.634
  O      -18.554    -154.870       2.557
  H      -18.314    -152.623       1.434
  H      -15.119    -156.741       1.123
  H      -16.662    -156.960       1.915
  H      -15.319    -156.267       2.793

 6  7  8  9  10  11  12  13  14  15  25  28  32  33  34  35 0
 6-311+G(2d,p)
 ****
 36  39  40 0
 6-311+G(2d,p)
 ****
 1  2  3  4  5  16  17  18  19  20  21  22  23  24 0
 3-21G
 ****
 26  27  29  30  31  37  38  41  42  43  44  45  46  47  48 0
 3-21G
 ****


