%nproc=1
%NoSave
%Mem=1900MB
#P OB98/GEN NMR

erre ene a

0 1
  C      877.152      21.011     126.858
  O      877.528      22.391     126.820
  P      876.531      23.412     126.079
  C      874.822      25.164     127.014
  O      875.564      23.969     127.227
  C      874.649      25.921     128.330
  O      873.887      25.122     129.281
  C      875.952      26.244     129.037
  O      876.635      27.317     128.401
  C      875.455      26.554     130.445
  O      874.934      27.891     130.511
  C      874.300      25.538     130.603
  N      874.656      24.393     131.431
  C      874.606      24.603     132.810
  O      874.300      25.683     133.317
  N      874.930      23.529     133.590
  C      875.325      22.299     133.142
  O      875.595      21.371     133.897
  C      875.411      22.151     131.681
  C      875.082      23.187     130.901
  O      875.620      22.398     125.244
  O      877.248      24.441     125.269
  H      875.455      21.556     125.713
  H      875.645      28.482     130.186
  H      874.885      23.659     134.594
  H      875.750      21.198     131.286
  H      875.134      23.100     129.821
  H      873.423      26.027     131.053
  H      876.238      26.469     131.200
  H      876.602      25.356     129.060
  H      874.087      26.840     128.126
  H      873.833      24.927     126.602
  H      875.348      25.779     126.273
  P      878.182      27.072     128.030
  C      879.470      26.848     125.769
  O      878.235      26.829     126.448
  O      878.424      25.621     128.660
  O      879.097      28.136     128.556
  H      877.701      25.002     128.472
  H      879.358      26.334     124.812
  H      880.259      26.352     126.343
  H      879.769      27.890     125.577
  H      877.901      20.451     127.378
  H      877.058      20.639     125.859
  H      876.216      20.910     127.366

 3  4  5  6  7  8  9  10  11  12  13  24  28  29  30  31  32 0
 6-311+G(2d,p)
 ****
 33  34 0
 6-311+G(2d,p)
 ****
 1  2  14  15  16  17  18  19  20  21  22  23  25  26  27 0
 3-21G
 ****
 35  36  37  38  39  40  41  42  43  44  45 0
 3-21G
 ****


