%nproc=1
%NoSave
%Mem=1900MB
#P OB98/GEN NMR

erre ene a

0 1
  C       81.702      14.554    -215.474
  O       82.190      15.573    -214.616
  P       81.159      16.220    -213.566
  C       80.187      17.877    -215.364
  O       79.960      16.818    -214.445
  C       79.184      19.009    -215.119
  O       77.838      18.521    -215.318
  C       79.197      19.580    -213.707
  O       80.297      20.458    -213.505
  C       77.832      20.251    -213.645
  O       77.869      21.528    -214.299
  C       76.958      19.267    -214.453
  N       76.160      18.373    -213.613
  C       75.134      18.969    -212.886
  O       74.884      20.173    -212.929
  N       74.408      18.123    -212.081
  C       74.643      16.794    -211.887
  O       73.988      16.099    -211.125
  C       75.761      16.230    -212.659
  C       76.456      17.030    -213.471
  O       81.995      17.501    -213.088
  O       80.760      15.276    -212.479
  H       82.621      17.803    -213.771
  H       77.015      21.964    -214.104
  H       73.638      18.528    -211.561
  H       75.986      15.177    -212.528
  H       77.293      16.638    -214.036
  H       76.276      19.821    -215.112
  H       77.485      20.416    -212.618
  H       79.240      18.765    -212.978
  H       79.371      19.802    -215.858
  H       80.074      17.502    -216.382
  H       81.209      18.246    -215.241
  P       80.687      20.776    -211.977
  C       80.368      23.370    -211.913
  O       79.877      22.095    -211.566
  O       82.202      21.276    -212.143
  O       80.525      19.608    -211.059
  H       82.322      21.868    -212.910
  H       79.543      24.084    -211.881
  H       80.799      23.375    -212.919
  H       81.130      23.675    -211.194
  H       82.491      14.219    -216.114
  H       80.901      14.941    -216.068
  H       81.346      13.733    -214.887

 3  4  5  6  7  8  9  10  11  12  13  24  28  29  30  31  32 0
 6-311+G(2d,p)
 ****
 33  34 0
 6-311+G(2d,p)
 ****
 1  2  14  15  16  17  18  19  20  21  22  23  25  26  27 0
 3-21G
 ****
 35  36  37  38  39  40  41  42  43  44  45 0
 3-21G
 ****


