%nproc=1
%NoSave
%Mem=1900MB
#P OB98/GEN NMR

erre ene a

0 1
  C     -155.228      38.995    -366.405
  O     -154.008      39.299    -365.712
  P     -153.871      38.824    -364.187
  C     -151.279      38.633    -364.139
  O     -152.528      37.963    -364.054
  C     -150.160      37.749    -363.582
  O     -150.325      37.511    -362.167
  C     -150.087      36.373    -364.230
  O     -149.372      36.405    -365.458
  C     -149.294      35.599    -363.190
  O     -147.888      35.891    -363.331
  C     -149.831      36.178    -361.876
  N     -150.962      31.755    -359.690
  C     -149.749      32.241    -360.143
  N     -148.677      31.432    -359.983
  N     -149.599      33.413    -360.701
  C     -150.751      34.123    -360.779
  C     -152.010      33.748    -360.369
  C     -152.165      32.443    -359.767
  O     -153.213      31.954    -359.360
  N     -152.929      34.732    -360.623
  C     -152.227      35.706    -361.168
  N     -150.901      35.378    -361.302
  O     -155.018      37.712    -364.058
  O     -154.047      39.917    -363.184
  H     -147.428      35.399    -362.624
  H     -155.328      37.663    -363.133
  H     -151.020      30.844    -359.272
  H     -152.628      36.662    -361.481
  H     -149.055      36.272    -361.108
  H     -149.402      34.516    -363.301
  H     -148.713      30.539    -359.515
  H     -151.088      35.935    -364.345
  H     -147.776      31.786    -360.277
  H     -149.206      38.269    -363.737
  H     -151.316      39.577    -363.589
  H     -151.092      38.905    -365.183
  P     -149.980      35.593    -366.701
  C     -150.379      37.790    -368.032
  O     -150.940      36.618    -367.472
  O     -150.987      34.569    -365.996
  O     -148.968      34.886    -367.538
  H     -151.039      33.741    -366.513
  H     -151.134      38.278    -368.647
  H     -149.517      37.546    -368.656
  H     -150.074      38.474    -367.232
  H     -155.173      39.371    -367.405
  H     -156.051      39.452    -365.896
  H     -155.369      37.935    -366.430

 3  4  5  6  7  8  9  10  11  12  23  26  30  31 0
 6-311+G(2d,p)
 ****
 33  35  36  37  38 0
 6-311+G(2d,p)
 ****
 1  2  13  14  15  16  17  18  19  20  21  22  24  25 0
 3-21G
 ****
 27  28  29  32  34  39  40  41  42  43  44  45  46  47  48  49 0
 3-21G
 ****


