%nproc=1
%NoSave
%Mem=1900MB
#P OB98/GEN NMR

erre ene a

0 1
  C     -147.816       8.719      17.836
  O     -148.574       9.157      16.716
  P     -148.755       8.131      15.493
  C     -150.568       6.409      16.197
  O     -149.183       6.737      16.161
  C     -150.864       5.231      15.276
  O     -150.674       5.615      13.900
  C     -149.969       4.020      15.490
  O     -150.405       3.215      16.573
  C     -150.158       3.285      14.173
  O     -151.404       2.564      14.191
  C     -150.231       4.441      13.170
  N     -147.569       4.076       8.820
  C     -148.797       3.633       9.163
  N     -149.432       3.760      10.347
  C     -148.651       4.390      11.240
  C     -147.364       4.863      11.045
  C     -146.819       4.698       9.762
  N     -145.579       5.176       9.406
  N     -146.884       5.449      12.196
  C     -147.864       5.342      13.067
  N     -148.957       4.718      12.534
  O     -147.249       7.867      15.019
  O     -149.618       8.621      14.382
  H     -151.355       1.934      14.936
  H     -147.240       7.568      14.089
  H     -149.346       3.117       8.381
  H     -147.830       5.706      14.084
  H     -150.962       4.258      12.375
  H     -149.368       2.554      13.977
  H     -148.918       4.315      15.597
  H     -151.919       4.957      15.407
  H     -151.148       7.276      15.867
  H     -145.339       5.181       8.427
  H     -145.112       5.809      10.045
  H     -150.851       6.170      17.227
  P     -149.371       2.113      17.118
  C     -148.136       3.716      18.746
  O     -148.074       2.936      17.568
  O     -148.910       1.359      15.785
  O     -149.950       1.181      18.128
  H     -148.617       0.451      15.991
  H     -147.117       3.946      19.069
  H     -148.643       3.177      19.551
  H     -148.661       4.653      18.542
  H     -147.779       9.498      18.568
  H     -146.822       8.477      17.522
  H     -148.277       7.852      18.261

 3  4  5  6  7  8  9  10  11  12  22  25  29  30  31  32 0
 6-311+G(2d,p)
 ****
 33  36  37 0
 6-311+G(2d,p)
 ****
 1  2  13  14  15  16  17  18  19  20  21  23  24  26 0
 3-21G
 ****
 27  28  34  35  38  39  40  41  42  43  44  45  46  47  48 0
 3-21G
 ****


