%nproc=1
%NoSave
%Mem=1900MB
#P OB98/GEN NMR

erre ene a

0 1
  C      274.786     882.116    -485.771
  O      274.557     880.842    -485.209
  P      273.872     879.688    -486.081
  C      271.357     879.883    -485.538
  O      272.569     879.169    -485.295
  C      270.230     879.328    -484.663
  O      269.881     877.981    -485.055
  C      270.578     879.247    -483.193
  O      270.607     880.520    -482.573
  C      269.484     878.306    -482.696
  O      268.250     879.027    -482.484
  C      269.334     877.339    -483.888
  N      269.968     876.053    -483.629
  C      269.350     875.246    -482.673
  O      268.383     875.653    -482.037
  N      269.856     873.983    -482.452
  C      270.947     873.618    -483.042
  N      271.368     872.333    -482.846
  C      271.720     874.499    -483.939
  C      271.168     875.687    -484.210
  O      274.789     878.609    -486.553
  O      273.235     880.474    -487.331
  H      273.506     880.031    -488.152
  H      268.404     879.638    -481.727
  H      272.669     874.169    -484.369
  H      271.646     876.396    -484.867
  H      268.278     877.173    -484.113
  H      269.745     877.831    -481.746
  H      271.552     878.757    -483.070
  H      269.350     879.970    -484.818
  H      270.814     871.756    -482.224
  H      271.093     879.774    -486.598
  H      271.995     871.859    -483.481
  H      271.519     880.949    -485.331
  P      271.612     880.703    -481.329
  C      269.575     882.013    -480.400
  O      270.984     881.799    -480.358
  O      272.875     881.438    -481.989
  O      272.018     879.424    -480.662
  H      273.704     881.121    -481.567
  H      269.282     882.506    -479.465
  H      269.040     881.061    -480.483
  H      269.328     882.655    -481.239
  H      275.248     882.749    -485.043
  H      273.854     882.544    -486.076
  H      275.429     882.021    -486.621

 3  4  5  6  7  8  9  10  11  12  13  24  27  28  29  30  32 0
 6-311+G(2d,p)
 ****
 34  35 0
 6-311+G(2d,p)
 ****
 1  2  14  15  16  17  18  19  20  21  22  23  25  26 0
 3-21G
 ****
 31  33  36  37  38  39  40  41  42  43  44  45  46 0
 3-21G
 ****


