%nproc=1
%NoSave
%Mem=1900MB
#P OB98/GEN NMR

erre ene a

0 1
  C       11.359       0.841      -5.014
  O       10.629       0.072      -5.954
  P        9.541       0.843      -6.848
  C        7.142       0.115      -6.147
  O        8.229       1.008      -5.943
  C        7.384      -1.189      -5.390
  O        7.803      -0.909      -4.040
  C        6.158      -2.082      -5.258
  O        5.878      -2.752      -6.476
  C        6.597      -2.992      -4.116
  O        7.486      -4.007      -4.608
  C        7.363      -2.015      -3.207
  N        4.833      -3.230       1.074
  C        5.521      -3.984       0.189
  N        6.148      -3.591      -0.938
  C        6.023      -2.266      -1.114
  C        5.335      -1.374      -0.311
  C        4.720      -1.903       0.835
  N        4.016      -1.130       1.733
  N        5.406      -0.097      -0.823
  C        6.135      -0.213      -1.913
  N        6.544      -1.502      -2.124
  O        9.111      -0.256      -7.926
  O       10.033       2.100      -7.494
  H        8.094      -3.578      -5.244
  H        8.906       0.160      -8.786
  H        5.577      -5.045       0.418
  H        6.397       0.602      -2.574
  H        8.255      -2.468      -2.761
  H        5.761      -3.498      -3.623
  H        5.286      -1.492      -4.952
  H        8.195      -1.728      -5.897
  H        7.046      -0.108      -7.214
  H        3.484      -1.609       2.443
  H        3.814      -0.172       1.479
  H        6.219       0.597      -5.811
  P        4.411      -3.379      -6.650
  C        4.401      -5.937      -6.424
  O        4.448      -4.700      -5.736
  O        4.487      -3.975      -8.130
  O        3.290      -2.436      -6.384
  H        5.291      -4.505      -8.270
  H        4.486      -6.746      -5.694
  H        5.230      -6.009      -7.134
  H        3.447      -6.037      -6.951
  H       12.044       0.208      -4.490
  H       10.682       1.288      -4.316
  H       11.902       1.608      -5.526

 3  4  5  6  7  8  9  10  11  12  22  25  29  30  31  32 0
 6-311+G(2d,p)
 ****
 33  36  37 0
 6-311+G(2d,p)
 ****
 1  2  13  14  15  16  17  18  19  20  21  23  24  26 0
 3-21G
 ****
 27  28  34  35  38  39  40  41  42  43  44  45  46  47  48 0
 3-21G
 ****


