%nproc=1
%NoSave
%Mem=1900MB
#P OB98/GEN NMR

erre ene a

0 1
  C      -21.517      50.710     -71.046
  O      -21.010      50.305     -69.790
  H      -22.237      51.518     -70.889
  H      -22.025      49.882     -71.549
  H      -20.704      51.085     -71.676
  P      -20.129      48.963     -69.727
  C      -18.785      47.953     -67.764
  O      -19.158      49.144     -68.458
  C      -17.943      48.282     -66.527
  O      -16.777      49.041     -66.908
  C      -18.666      49.147     -65.507
  O      -19.722      48.489     -64.837
  C      -17.514      49.732     -64.701
  O      -17.078      48.890     -63.638
  C      -16.399      49.845     -65.770
  N      -16.138      51.228     -66.145
  C      -14.905      51.740     -65.748
  O      -14.078      51.096     -65.100
  N      -14.664      53.043     -66.084
  C      -15.536      53.880     -66.718
  O      -15.276      55.055     -66.954
  C      -16.836      53.292     -67.090
  C      -17.072      52.012     -66.791
  O      -19.410      48.596     -70.992
  O      -21.166      47.850     -69.232
  H      -17.851      48.731     -63.063
  H      -20.823      46.941     -69.406
  H      -13.772      53.429     -65.813
  H      -17.552      53.926     -67.593
  H      -18.023      51.553     -67.054
  H      -15.463      49.416     -65.387
  H      -17.785      50.693     -64.255
  H      -19.126      49.989     -66.039
  H      -17.605      47.340     -66.080
  H      -18.193      47.340     -68.450
  H      -19.683      47.397     -67.477
  P      -20.869      49.262     -64.034
  C      -22.974      48.633     -62.645
  O      -21.902      48.171     -63.460
  O      -21.415      50.502     -64.669
  O      -20.075      49.712     -62.702
  H      -20.436      50.575     -62.425
  H      -23.574      47.801     -62.339
  H      -23.575      49.320     -63.203
  H      -22.579      49.125     -61.781

 6  7  8  9  10  11  12  13  14  15  16  26  31  32  33  34  35 0
 6-311+G(2d,p)
 ****
 36  37 0
 6-311+G(2d,p)
 ****
 1  2  3  4  5  17  18  19  20  21  22  23  24  25 0
 3-21G
 ****
 27  28  29  30  38  39  40  41  42  43  44  45 0
 3-21G
 ****


