%nproc=1
%NoSave
%Mem=1900MB
#P OB98/GEN NMR

erre ene a

0 1
  C     -114.460     -19.568      64.467
  O     -114.441     -18.371      65.249
  P     -115.379     -18.349      66.557
  C     -116.069     -15.840      66.594
  O     -115.292     -16.874      67.183
  C     -115.426     -14.477      66.835
  O     -114.147     -14.384      66.184
  C     -116.230     -13.302      66.297
  O     -117.294     -12.949      67.168
  C     -115.172     -12.208      66.269
  O     -115.039     -11.622      67.576
  C     -113.900     -12.986      65.897
  N     -111.879      -9.967      62.364
  C     -112.085      -9.739      63.710
  N     -111.668      -8.546      64.188
  N     -112.647     -10.600      64.515
  C     -112.986     -11.763      63.905
  C     -112.835     -12.106      62.582
  C     -112.240     -11.130      61.695
  O     -112.064     -11.268      60.489
  N     -113.290     -13.376      62.338
  C     -113.690     -13.812      63.516
  N     -113.539     -12.862      64.498
  O     -114.556     -19.241      67.601
  O     -116.753     -18.880      66.325
  H     -114.464     -10.836      67.481
  H     -115.165     -19.647      68.245
  H     -111.448      -9.264      61.789
  H     -114.089     -14.799      63.712
  H     -113.041     -12.677      66.502
  H     -115.422     -11.395      65.581
  H     -111.163      -7.866      63.641
  H     -116.583     -13.502      65.278
  H     -111.779      -8.376      65.181
  H     -115.274     -14.359      67.918
  H     -117.076     -15.846      67.017
  H     -116.173     -16.040      65.523
  P     -118.738     -12.721      66.506
  C     -119.664     -10.656      67.774
  O     -119.638     -12.064      67.656
  O     -119.311     -14.208      66.365
  O     -118.712     -12.003      65.199
  H     -119.932     -14.260      65.613
  H     -119.741     -10.177      66.794
  H     -118.757     -10.313      68.280
  H     -120.532     -10.369      68.373
  H     -113.800     -19.459      63.632
  H     -115.454     -19.749      64.115
  H     -114.139     -20.392      65.069

 3  4  5  6  7  8  9  10  11  12  23  26  30  31  33  0
 6-311+G(2d,p)
 ****
 35  36  37  38 0
 6-311+G(2d,p)
 ****
 1  2  13  14  15  16  17  18  19  20  21  22  24  25  27  28  29 0
 3-21G
 ****
 32  34  39  40  41  42  43  44  45  46  47  48  49 0
 3-21G
 ****


