%nproc=1
%NoSave
%Mem=1900MB
#P OB98/GEN NMR

erre ene a

0 1
  C     -184.358      43.957     370.718
  O     -184.215      43.284     371.955
  H     -185.359      43.757     370.322
  H     -183.624      43.598     369.992
  H     -184.242      45.034     370.858
  P     -182.776      43.293     372.661
  C     -182.590      40.719     372.482
  O     -182.029      41.979     372.130
  C     -182.691      39.826     371.249
  O     -183.468      40.478     370.224
  C     -181.339      39.524     370.614
  O     -180.634      38.558     371.367
  C     -181.765      39.094     369.225
  O     -182.219      37.732     369.219
  C     -182.935      40.065     368.944
  N     -182.529      41.221     368.151
  C     -182.607      41.069     366.761
  O     -183.003      40.014     366.270
  N     -182.207      42.116     365.967
  C     -181.788      43.217     366.507
  N     -181.409      44.216     365.664
  C     -181.704      43.422     367.965
  C     -182.083      42.392     368.720
  O     -182.754      43.458     374.149
  O     -181.999      44.477     371.915
  H     -181.485      37.204     369.590
  H     -182.144      45.325     372.373
  H     -181.354      44.361     368.370
  H     -182.053      42.459     369.803
  H     -183.745      39.552     368.415
  H     -180.946      39.172     368.514
  H     -180.754      40.445     370.519
  H     -183.210      38.902     371.532
  H     -181.473      44.027     364.668
  H     -183.587      40.910     372.892
  H     -181.151      45.141     365.967
  H     -181.986      40.227     373.255
  P     -179.260      38.941     372.102
  C     -178.123      37.447     370.332
  O     -178.110      38.703     371.008
  O     -179.039      38.278     373.421
  O     -179.334      40.539     372.203
  H     -179.975      40.828     372.895
  H     -177.314      37.410     369.633
  H     -179.050      37.332     369.810
  H     -178.015      36.657     371.045

 6  7  8  9  10  11  12  13  14  15  16  26  30  31  32  33  35 0
 6-311+G(2d,p)
 ****
 37  38 0
 6-311+G(2d,p)
 ****
 1  2  3  4  5  17  18  19  20  21  22  23  24  25 0
 3-21G
 ****
 27  28  29  34  36  39  40  41  42  43  44  45  46 0
 3-21G
 ****


