%nproc=1
%NoSave
%Mem=1900MB
#P OB98/GEN NMR

erre ene a

0 1
  C     -190.474    -105.430    -135.385
  O     -189.473    -106.201    -134.750
  H     -190.040    -104.465    -135.670
  H     -191.311    -105.247    -134.705
  H     -190.829    -105.932    -136.288
  P     -189.878    -107.635    -134.161
  C     -189.633    -108.562    -136.566
  O     -190.444    -108.487    -135.395
  C     -189.493    -110.009    -137.029
  O     -188.728    -110.073    -138.251
  C     -188.767    -110.912    -136.036
  O     -189.610    -111.240    -134.952
  C     -188.391    -112.075    -136.944
  O     -189.514    -112.937    -137.170
  C     -188.008    -111.328    -138.246
  N     -186.569    -111.100    -138.385
  C     -185.911    -111.884    -139.338
  O     -186.538    -112.718    -139.996
  N     -184.560    -111.712    -139.508
  C     -183.929    -110.812    -138.824
  N     -182.593    -110.686    -139.042
  C     -184.591    -109.939    -137.832
  C     -185.897    -110.143    -137.657
  O     -190.766    -107.629    -132.956
  O     -188.469    -108.335    -133.852
  H     -189.251    -113.547    -137.888
  H     -188.211    -108.191    -132.922
  H     -184.027    -109.192    -137.293
  H     -186.459    -109.544    -136.950
  H     -188.350    -111.891    -139.125
  H     -187.595    -112.688    -136.524
  H     -187.846    -110.434    -135.690
  H     -190.498    -110.393    -137.251
  H     -182.185    -111.293    -139.747
  H     -188.651    -108.153    -136.303
  H     -182.037    -109.922    -138.692
  H     -190.060    -107.951    -137.367
  P     -189.149    -112.264    -133.806
  C     -188.493    -110.363    -132.203
  O     -188.037    -111.482    -132.949
  O     -188.737    -113.614    -134.290
  O     -190.396    -112.298    -132.806
  H     -191.121    -112.860    -133.177
  H     -187.670    -109.926    -131.677
  H     -189.236    -110.681    -131.502
  H     -188.916    -109.639    -132.868

 6  7  8  9  10  11  12  13  14  15  16  26  30  31  32  33  35 0
 6-311+G(2d,p)
 ****
 37  38 0
 6-311+G(2d,p)
 ****
 1  2  3  4  5  17  18  19  20  21  22  23  24  25 0
 3-21G
 ****
 27  28  29  34  36  39  40  41  42  43  44  45  46 0
 3-21G
 ****


