%nproc=1
%NoSave
%Mem=1900MB
#P OB98/GEN NMR

erre ene a

0 1
  C      300.158     415.886    -244.384
  O      300.117     416.081    -242.966
  P      299.366     417.397    -242.418
  C      296.867     416.684    -242.422
  O      297.889     417.448    -243.051
  C      295.473     417.154    -242.866
  O      295.318     418.586    -242.646
  C      295.177     416.902    -244.347
  O      293.772     416.686    -244.498
  C      295.537     418.224    -244.987
  O      294.950     418.361    -246.284
  C      295.030     419.194    -243.920
  N      294.957     423.587    -246.399
  C      294.204     422.444    -246.588
  N      293.263     422.497    -247.558
  N      294.348     421.349    -245.890
  C      295.299     421.463    -244.928
  C      296.121     422.530    -244.649
  C      295.960     423.728    -245.452
  O      296.611     424.760    -245.340
  N      296.980     422.248    -243.614
  C      296.689     421.009    -243.280
  N      295.651     420.498    -244.020
  O      300.137     418.581    -243.175
  O      299.438     417.559    -240.937
  H      295.175     419.256    -246.615
  H      300.693     419.065    -242.535
  H      294.804     424.395    -246.979
  H      297.184     420.437    -242.515
  H      293.944     419.349    -243.987
  H      296.633     418.305    -245.100
  H      293.054     423.320    -248.099
  H      295.719     416.058    -244.784
  H      292.672     421.691    -247.692
  H      294.723     416.646    -242.245
  H      296.948     416.766    -241.333
  H      297.026     415.627    -242.652
  P      293.298     415.207    -244.903
  C      291.232     415.386    -243.342
  O      292.409     414.676    -243.677
  O      294.632     414.342    -244.791
  O      292.666     415.104    -246.254
  H      294.583     413.558    -245.365
  H      290.361     414.835    -243.709
  H      291.220     416.396    -243.756
  H      291.165     415.455    -242.245
  H      300.683     414.980    -244.604
  H      300.662     416.711    -244.843
  H      299.160     415.821    -244.764

 3  4  5  6  7  8  9  10  11  12  23  26  30  31 0
 6-311+G(2d,p)
 ****
 33  35  36  37  38 0
 6-311+G(2d,p)
 ****
 1  2  13  14  15  16  17  18  19  20  21  22  24  25 0
 3-21G
 ****
 27  28  29  32  34  39  40  41  42  43  44  45  46  47  48  49 0
 3-21G
 ****


