%nproc=1
%NoSave
%Mem=1900MB
#P OB98/GEN NMR

erre ene a

0 1
  C      139.408     123.650      86.553
  O      139.862     123.732      85.204
  P      139.036     124.391      84.007
  C      137.616     126.591      83.886
  O      138.775     125.928      84.367
  C      137.833     128.096      83.655
  O      138.116     128.746      84.920
  C      139.056     128.330      82.765
  O      138.938     128.251      81.358
  C      139.648     129.642      83.263
  O      139.187     130.771      82.520
  C      139.160     129.719      84.711
  N      144.014     130.676      86.019
  C      143.337     131.013      84.863
  N      144.055     131.644      83.907
  N      142.078     130.742      84.655
  C      141.502     130.033      85.652
  C      142.072     129.621      86.834
  C      143.454     129.978      87.081
  O      144.096     129.714      88.094
  N      141.187     128.902      87.597
  C      140.093     128.856      86.866
  N      140.232     129.535      85.676
  O      137.869     123.602      83.518
  O      140.114     124.459      82.808
  H      139.378     130.608      81.580
  H      139.612     124.342      81.975
  H      144.977     130.930      86.137
  H      139.175     128.354      87.149
  H      138.715     130.700      84.927
  H      140.742     129.632      83.165
  H      145.054     131.774      83.957
  H      139.793     127.561      83.026
  H      143.627     131.698      82.982
  H      136.925     128.567      83.273
  H      136.828     126.430      84.626
  H      137.275     126.123      82.961
  P      138.761     126.911      80.495
  C      136.941     125.155      80.085
  O      137.331     126.284      80.848
  O      139.774     125.878      81.178
  O      139.047     127.056      79.038
  H      139.938     125.122      80.584
  H      135.861     125.013      80.189
  H      137.454     124.265      80.460
  H      137.181     125.298      79.028
  H      140.151     123.164      87.150
  H      138.497     123.089      86.589
  H      139.235     124.636      86.932

 3  4  5  6  7  8  9  10  11  12  23  26  30  31 0
 6-311+G(2d,p)
 ****
 33  35  36  37  38 0
 6-311+G(2d,p)
 ****
 1  2  13  14  15  16  17  18  19  20  21  22  24  25 0
 3-21G
 ****
 27  28  29  32  34  39  40  41  42  43  44  45  46  47  48  49 0
 3-21G
 ****


