%nproc=1
%NoSave
%Mem=1900MB
#P OB98/GEN NMR

erre ene a

0 1
  C     -146.370    -160.705      14.156
  O     -145.229    -160.288      13.409
  P     -145.091    -158.895      12.646
  C     -146.113    -159.777      10.390
  O     -146.167    -158.850      11.465
  C     -147.336    -159.629       9.470
  O     -148.543    -159.849      10.261
  C     -147.446    -158.226       8.859
  O     -147.823    -158.233       7.485
  C     -148.368    -157.506       9.827
  O     -148.977    -156.349       9.274
  C     -149.314    -158.624      10.258
  N     -151.675    -155.329      13.362
  C     -151.073    -155.103      12.141
  N     -151.086    -153.832      11.685
  N     -150.497    -156.037      11.432
  C     -150.486    -157.245      12.036
  C     -151.034    -157.592      13.251
  C     -151.715    -156.561      14.004
  O     -152.282    -156.712      15.082
  N     -150.832    -158.920      13.529
  C     -150.149    -159.371      12.497
  N     -149.920    -158.391      11.558
  O     -143.700    -158.472      12.306
  O     -145.676    -157.823      13.702
  H     -148.294    -155.655       9.211
  H     -145.181    -156.993      13.553
  H     -152.126    -154.577      13.854
  H     -149.810    -160.393      12.372
  H     -150.144    -158.754       9.560
  H     -147.757    -157.170      10.677
  H     -151.402    -153.047      12.232
  H     -146.470    -157.728       8.852
  H     -150.455    -153.634      10.904
  H     -147.293    -160.403       8.698
  H     -146.109    -160.772      10.847
  H     -145.183    -159.667       9.829
  P     -146.890    -158.359       6.195
  C     -146.864    -155.812       5.896
  O     -146.083    -156.988       6.010
  O     -147.898    -158.353       4.952
  O     -146.038    -159.587       6.160
  H     -147.822    -159.195       4.461
  H     -146.229    -155.006       5.516
  H     -147.243    -155.527       6.882
  H     -147.698    -155.965       5.208
  H     -146.194    -161.680      14.561
  H     -147.225    -160.735      13.514
  H     -146.547    -160.014      14.953

 3  4  5  6  7  8  9  10  11  12  23  26  30  31 0
 6-311+G(2d,p)
 ****
 33  35  36  37  38 0
 6-311+G(2d,p)
 ****
 1  2  13  14  15  16  17  18  19  20  21  22  24  25 0
 3-21G
 ****
 27  28  29  32  34  39  40  41  42  43  44  45  46  47  48  49 0
 3-21G
 ****


