%nproc=1
%NoSave
%Mem=1900MB
#P OB98/GEN NMR

erre ene a

0 1
  C       -4.218    -406.644      97.649
  O       -5.431    -406.171      98.212
  P       -6.441    -407.249      98.841
  C       -5.480    -406.949     101.247
  O       -5.737    -407.828     100.162
  C       -6.759    -406.690     102.051
  O       -7.384    -407.970     102.331
  C       -6.546    -405.991     103.403
  O       -7.707    -405.186     103.638
  C       -6.511    -407.143     104.387
  O       -6.800    -406.734     105.723
  C       -7.543    -408.075     103.767
  N       -9.216    -411.779     106.790
  C       -9.604    -410.451     106.720
  N      -10.624    -410.073     107.523
  N       -9.049    -409.570     105.922
  C       -8.051    -410.101     105.166
  C       -7.547    -411.375     105.180
  C       -8.198    -412.348     106.031
  O       -7.943    -413.547     106.072
  N       -6.476    -411.503     104.337
  C       -6.377    -410.330     103.747
  N       -7.343    -409.451     104.191
  O       -6.358    -408.466      97.800
  O       -7.848    -406.773      99.057
  H       -7.701    -406.347     105.729
  H       -7.065    -408.409      97.137
  H       -9.700    -412.412     107.410
  H       -5.646    -410.049     103.011
  H       -8.574    -407.799     104.021
  H       -5.512    -407.596     104.386
  H      -11.120    -410.710     108.134
  H       -5.645    -405.373     103.431
  H      -10.953    -409.120     107.458
  H       -7.451    -406.119     101.424
  H       -5.122    -405.991     100.850
  H       -4.698    -407.371     101.889
  P       -7.609    -404.043     104.764
  C       -7.413    -402.240     102.910
  O       -6.882    -402.775     104.109
  O       -6.503    -404.627     105.770
  O       -8.887    -403.767     105.485
  H       -6.702    -404.338     106.683
  H       -7.087    -401.197     102.810
  H       -8.502    -402.271     102.903
  H       -7.031    -402.810     102.056
  H       -3.653    -405.817      97.273
  H       -4.436    -407.320      96.849
  H       -3.650    -407.152      98.400

 3  4  5  6  7  8  9  10  11  12  23  26  30  31 0
 6-311+G(2d,p)
 ****
 33  35  36  37  38 0
 6-311+G(2d,p)
 ****
 1  2  13  14  15  16  17  18  19  20  21  22  24  25 0
 3-21G
 ****
 27  28  29  32  34  39  40  41  42  43  44  45  46  47  48  49 0
 3-21G
 ****


