%nproc=1
%NoSave
%Mem=1900MB
#P OB98/GEN NMR

erre ene a

0 1
  C     -117.124    -824.791     160.743
  O     -116.707    -825.575     159.646
  H     -116.516    -823.885     160.814
  H     -118.168    -824.504     160.593
  H     -117.046    -825.366     161.672
  P     -115.195    -826.114     159.672
  C     -113.005    -825.084     160.617
  O     -114.288    -824.845     160.050
  C     -112.527    -823.831     161.344
  O     -113.450    -823.480     162.398
  C     -111.169    -823.978     162.017
  O     -110.091    -823.813     161.106
  C     -111.223    -822.830     163.010
  O     -110.980    -821.584     162.331
  C     -112.685    -822.898     163.485
  N     -111.593    -823.309     168.466
  C     -111.244    -822.390     167.545
  N     -111.570    -822.355     166.237
  C     -112.344    -823.406     165.910
  C     -112.771    -824.429     166.743
  C     -112.369    -824.347     168.088
  N     -112.710    -825.294     169.033
  N     -113.516    -825.355     166.041
  C     -113.566    -824.877     164.810
  N     -112.862    -823.710     164.679
  O     -114.855    -826.357     158.127
  O     -114.953    -827.328     160.504
  H     -110.161    -821.706     161.812
  H     -114.103    -826.974     158.042
  H     -110.617    -821.580     167.899
  H     -114.089    -825.341     163.983
  H     -113.103    -821.909     163.695
  H     -110.482    -822.911     163.803
  H     -111.090    -824.923     162.568
  H     -112.515    -822.999     160.623
  H     -112.301    -825.332     159.818
  H     -112.222    -825.244     169.912
  H     -113.160    -826.144     168.723
  H     -113.070    -825.925     161.313
  P     -108.660    -824.395     161.542
  C     -106.927    -823.736     163.369
  O     -108.074    -823.357     162.608
  O     -107.761    -824.143     160.244
  O     -108.668    -825.824     161.967
  H     -107.024    -824.792     160.204
  H     -106.660    -822.940     164.032
  H     -106.111    -823.938     162.707
  H     -107.151    -824.614     163.938

 6  7  8  9  10  11  12  13  14  15  25  28  32  33  34  35 0
 6-311+G(2d,p)
 ****
 36  39  40 0
 6-311+G(2d,p)
 ****
 1  2  3  4  5  16  17  18  19  20  21  22  23  24 0
 3-21G
 ****
 26  27  29  30  31  37  38  41  42  43  44  45  46  47 0
 3-21G
 ****
 48 0
 3-21G
 ****


