%nproc=1
%NoSave
%Mem=1900MB
#P OB98/GEN NMR

erre ene a

0 1
  C     -380.939     141.101     -83.753
  O     -380.814     139.825     -83.155
  H     -381.818     141.597     -83.337
  H     -381.074     140.989     -84.832
  H     -380.061     141.718     -83.552
  P     -379.459     138.998     -83.360
  C     -378.650     138.348     -80.997
  O     -379.376     137.947     -82.152
  C     -378.707     137.272     -79.909
  O     -380.095     137.106     -79.484
  C     -378.200     135.896     -80.364
  O     -377.632     135.247     -79.221
  C     -379.491     135.210     -80.780
  O     -379.327     133.807     -80.856
  C     -380.439     135.724     -79.693
  N     -381.851     135.556     -80.065
  C     -382.470     134.381     -79.646
  O     -381.882     133.502     -79.020
  N     -383.781     134.234     -80.004
  C     -384.500     135.102     -80.774
  O     -385.656     134.899     -81.101
  C     -383.777     136.301     -81.234
  C     -382.508     136.477     -80.859
  O     -378.228     139.822     -83.556
  O     -379.756     138.057     -84.622
  H     -379.207     133.433     -79.964
  H     -378.930     137.887     -85.111
  H     -384.243     133.397     -79.698
  H     -384.314     136.997     -81.856
  H     -381.951     137.352     -81.177
  H     -380.272     135.188     -78.746
  H     -379.813     135.557     -81.763
  H     -377.464     135.954     -81.170
  H     -378.153     137.631     -79.030
  H     -379.092     139.280     -80.623
  H     -377.607     138.540     -81.273
  P     -376.264     134.414     -79.291
  C     -375.638     134.215     -76.797
  O     -376.120     133.540     -77.953
  O     -375.058     135.247     -79.607
  O     -376.510     133.323     -80.439
  H     -375.664     133.079     -80.852
  H     -375.588     133.528     -75.978
  H     -376.302     135.017     -76.550
  H     -374.662     134.607     -76.994

 6  7  8  9  10  11  12  13  14  15  16  26  31  32  33  34  35 0
 6-311+G(2d,p)
 ****
 36  37 0
 6-311+G(2d,p)
 ****
 1  2  3  4  5  17  18  19  20  21  22  23  24  25 0
 3-21G
 ****
 27  28  29  30  38  39  40  41  42  43  44  45 0
 3-21G
 ****


