%nproc=1
%NoSave
%Mem=1900MB
#P OB98/GEN NMR

erre ene a

0 1
  C     -420.190    -191.780      19.679
  O     -418.817    -191.565      19.442
  H     -420.321    -192.071      20.727
  H     -420.556    -192.588      19.044
  H     -420.771    -190.874      19.495
  P     -418.374    -190.824      18.093
  C     -417.397    -192.767      16.701
  O     -418.497    -191.891      16.903
  C     -417.595    -193.615      15.443
  O     -418.695    -194.539      15.664
  C     -417.975    -192.747      14.229
  O     -417.561    -193.330      13.001
  C     -419.496    -192.741      14.294
  O     -420.105    -192.450      13.033
  C     -419.782    -194.156      14.808
  N     -424.769    -195.231      14.572
  C     -423.856    -195.062      13.548
  N     -424.345    -195.199      12.284
  N     -422.599    -194.759      13.729
  C     -422.272    -194.583      15.037
  C     -423.079    -194.700      16.140
  C     -424.465    -195.071      15.925
  O     -425.313    -195.209      16.796
  N     -422.391    -194.440      17.292
  C     -421.169    -194.155      16.897
  N     -421.035    -194.251      15.531
  O     -416.787    -190.664      18.253
  O     -419.036    -189.498      17.834
  H     -419.773    -191.577      12.747
  H     -416.461    -189.943      17.685
  H     -425.713    -195.496      14.376
  H     -420.341    -193.887      17.548
  H     -419.828    -194.864      13.970
  H     -419.810    -191.959      14.989
  H     -425.335    -195.237      12.099
  H     -417.579    -191.739      14.298
  H     -423.790    -194.775      11.534
  H     -416.703    -194.224      15.256
  H     -417.329    -193.403      17.593
  H     -416.467    -192.200      16.644
  P     -416.197    -192.819      12.331
  C     -417.051    -191.131      10.467
  O     -416.415    -191.363      11.709
  O     -416.027    -193.758      11.049
  O     -415.010    -192.884      13.234
  H     -415.231    -194.317      11.134
  H     -417.076    -190.080      10.270
  H     -418.051    -191.511      10.502
  H     -416.508    -191.627       9.690

 6  7  8  9  10  11  12  13  14  15  26  29  33  34 0
 6-311+G(2d,p)
 ****
 36  38  39  40  41 0
 6-311+G(2d,p)
 ****
 1  2  3  4  5  16  17  18  19  20  21  22  23  24  25 0
 3-21G
 ****
 27  28  30  31  32  35  37  42  43  44  45  46  47 0
 3-21G
 ****
 48  49 0
 3-21G
 ****


