%nproc=1
%NoSave
%Mem=1900MB
#P OB98/GEN NMR

erre ene a

0 1
  C     1278.498    2251.840       2.049
  O     1279.741    2252.137       2.671
  H     1278.708    2251.299       1.112
  H     1277.974    2252.749       1.806
  H     1277.900    2251.208       2.692
  P     1279.735    2252.999       4.025
  C     1280.511    2251.025       5.474
  O     1279.476    2251.963       5.223
  C     1280.002    2249.884       6.407
  O     1278.802    2249.318       5.728
  C     1281.016    2248.764       6.590
  O     1281.245    2248.474       7.996
  C     1280.503    2247.653       5.714
  O     1280.885    2246.347       6.092
  C     1278.999    2247.858       5.683
  N     1278.324    2247.325       4.490
  C     1277.701    2246.107       4.646
  O     1277.655    2245.422       5.676
  N     1277.095    2245.598       3.522
  C     1277.038    2246.199       2.309
  O     1276.469    2245.731       1.312
  C     1277.754    2247.500       2.179
  C     1278.363    2248.000       3.269
  O     1278.838    2254.195       4.017
  O     1281.255    2253.425       4.221
  H     1281.856    2246.348       6.205
  H     1281.386    2254.363       3.967
  H     1276.627    2244.696       3.607
  H     1277.756    2248.006       1.243
  H     1278.846    2248.952       3.252
  H     1278.535    2247.429       6.548
  H     1280.921    2247.801       4.694
  H     1282.010    2249.080       6.238
  H     1279.668    2250.320       7.351
  H     1281.343    2251.567       5.966
  H     1280.877    2250.598       4.544
  P     1282.371    2249.163       8.894
  C     1280.684    2250.811      10.069
  O     1281.857    2250.630       9.262
  O     1283.741    2249.031       8.372
  O     1282.268    2248.355      10.285
  H     1283.160    2248.331      10.633
  H     1280.502    2251.857      10.205
  H     1280.832    2250.348      11.022
  H     1279.843    2250.363       9.582

 6  7  8  9  10  11  12  13  14  15  16  26  31  32  33  34  35 0
 6-311+G(2d,p)
 ****
 36  37 0
 6-311+G(2d,p)
 ****
 1  2  3  4  5  17  18  19  20  21  22  23  24  25 0
 3-21G
 ****
 27  28  29  30  38  39  40  41  42  43  44  45 0
 3-21G
 ****


