%nproc=1
%NoSave
%Mem=1900MB
#P OB98/GEN NMR

erre ene a

0 1
  C      383.397      88.500     199.743
  O      383.002      88.968     201.009
  P      384.093      89.518     202.051
  C      385.821      88.445     203.635
  O      384.925      88.238     202.539
  C      386.077      87.118     204.358
  O      386.749      86.173     203.488
  C      387.012      87.250     205.562
  O      386.543      87.989     206.668
  C      387.378      85.792     205.794
  O      386.348      85.122     206.540
  C      387.446      85.246     204.348
  N      388.839      85.047     203.915
  C      389.023      84.185     202.841
  O      388.110      83.623     202.249
  N      390.325      83.983     202.461
  C      391.429      84.502     203.072
  O      392.576      84.240     202.706
  C      391.175      85.376     204.226
  C      389.904      85.612     204.600
  O      383.555      90.353     203.153
  O      385.156      90.273     201.117
  H      385.519      85.207     206.041
  H      385.579      89.711     200.440
  H      390.486      83.359     201.681
  H      392.027      85.814     204.730
  H      389.686      86.260     205.437
  H      386.936      84.286     204.278
  H      388.305      85.698     206.385
  H      387.921      87.761     205.228
  H      385.102      86.685     204.643
  H      385.357      89.160     204.342
  H      386.746      88.891     203.271
  P      387.488      88.405     207.899
  C      388.945      87.172     209.660
  O      388.009      87.062     208.599
  O      386.970      89.487     208.805
  O      388.793      88.927     207.153
  H      389.217      89.620     207.695
  H      389.237      86.160     209.984
  H      388.499      87.691     210.509
  H      389.844      87.698     209.321
  H      382.535      88.178     199.197
  H      384.072      87.678     199.861
  H      383.885      89.288     199.208

 3  4  5  6  7  8  9  10  11  12  13  23  28  29  30  31  32 0
 6-311+G(2d,p)
 ****
 33  34 0
 6-311+G(2d,p)
 ****
 1  2  14  15  16  17  18  19  20  21  22  24  25  26  27 0
 3-21G
 ****
 35  36  37  38  39  40  41  42  43  44  45 0
 3-21G
 ****


