%nproc=1
%NoSave
%Mem=1900MB
#P OB98/GEN NMR

erre ene a

0 1
  C      186.553    -223.232    -308.783
  O      187.185    -223.914    -309.866
  P      186.381    -225.177    -310.461
  C      186.052    -227.646    -309.742
  O      186.388    -226.327    -309.338
  C      186.572    -228.676    -308.732
  O      188.022    -228.836    -308.849
  C      186.280    -228.311    -307.269
  O      186.033    -229.539    -306.574
  C      187.597    -227.694    -306.824
  O      187.725    -227.599    -305.415
  C      188.570    -228.634    -307.528
  N      193.223    -228.847    -305.440
  C      192.064    -229.477    -305.136
  N      190.862    -229.359    -305.740
  C      190.933    -228.494    -306.766
  C      192.037    -227.774    -307.196
  C      193.233    -227.977    -306.483
  N      194.413    -227.328    -306.767
  N      191.712    -226.965    -308.271
  C      190.407    -227.143    -308.436
  N      189.917    -228.115    -307.605
  O      187.358    -225.737    -311.597
  O      185.029    -224.828    -310.992
  H      188.638    -227.324    -305.184
  H      187.068    -225.431    -312.475
  H      192.109    -230.156    -304.288
  H      189.784    -226.604    -309.126
  H      188.629    -229.612    -307.040
  H      187.670    -226.678    -307.232
  H      185.414    -227.646    -307.148
  H      186.119    -229.651    -308.971
  H      186.484    -227.860    -310.726
  H      195.212    -227.537    -306.201
  H      194.458    -226.669    -307.529
  H      184.966    -227.719    -309.859
  P      184.700    -229.671    -305.688
  C      184.091    -229.076    -303.266
  O      185.102    -229.059    -304.258
  O      184.718    -231.246    -305.372
  O      183.439    -229.191    -306.319
  H      185.586    -231.525    -305.035
  H      184.517    -228.710    -302.327
  H      183.723    -230.095    -303.116
  H      183.272    -228.415    -303.564
  H      187.169    -222.416    -308.467
  H      186.414    -223.910    -307.967
  H      185.603    -222.859    -309.103

 3  4  5  6  7  8  9  10  11  12  22  25  29  30  31  32 0
 6-311+G(2d,p)
 ****
 33  36  37 0
 6-311+G(2d,p)
 ****
 1  2  13  14  15  16  17  18  19  20  21  23  24  26 0
 3-21G
 ****
 27  28  34  35  38  39  40  41  42  43  44  45  46  47  48 0
 3-21G
 ****


