%nproc=1
%NoSave
%Mem=1900MB
#P OB98/GEN NMR

erre ene a

0 1
  C     -448.741     464.927    -189.580
  O     -448.567     464.785    -190.988
  P     -449.017     463.413    -191.683
  C     -446.520     462.586    -191.983
  O     -447.850     462.333    -191.576
  C     -445.596     461.504    -191.413
  O     -445.884     460.225    -192.022
  C     -444.121     461.786    -191.641
  O     -443.561     462.594    -190.626
  C     -443.532     460.388    -191.679
  O     -443.394     459.866    -190.345
  C     -444.632     459.610    -192.448
  N     -444.588     459.616    -193.930
  C     -443.592     458.914    -194.598
  O     -442.720     458.262    -194.038
  N     -443.631     458.956    -195.963
  C     -444.631     459.493    -196.725
  O     -444.643     459.443    -197.957
  C     -445.743     460.087    -195.971
  C     -445.665     460.139    -194.642
  O     -449.061     463.774    -193.246
  O     -450.337     462.882    -191.196
  H     -443.228     458.908    -190.419
  H     -449.977     463.712    -193.584
  H     -442.877     458.518    -196.461
  H     -446.583     460.477    -196.537
  H     -446.476     460.591    -194.069
  H     -444.662     458.565    -192.137
  H     -442.524     460.384    -192.113
  H     -443.973     462.239    -192.629
  H     -445.797     461.417    -190.331
  H     -446.196     463.570    -191.648
  H     -446.472     462.585    -193.081
  P     -442.987     464.051    -190.997
  C     -440.533     463.338    -190.963
  O     -441.606     463.786    -191.770
  O     -442.928     465.043    -189.882
  O     -443.951     464.534    -192.194
  H     -444.671     465.117    -191.837
  H     -439.692     463.052    -191.615
  H     -440.826     462.471    -190.372
  H     -440.190     464.153    -190.305
  H     -448.395     465.892    -189.273
  H     -448.181     464.169    -189.073
  H     -449.778     464.827    -189.337

 3  4  5  6  7  8  9  10  11  12  13  23  28  29  30  31  32 0
 6-311+G(2d,p)
 ****
 33  34 0
 6-311+G(2d,p)
 ****
 1  2  14  15  16  17  18  19  20  21  22  24  25  26  27 0
 3-21G
 ****
 35  36  37  38  39  40  41  42  43  44  45 0
 3-21G
 ****


