%nproc=1
%NoSave
%Mem=1900MB
#P OB98/GEN NMR

erre ene a

0 1
  C       18.134     131.498      25.029
  O       17.536     130.223      24.816
  P       18.222     129.220      23.773
  C       20.771     128.609      24.148
  O       19.413     128.428      24.484
  C       21.641     127.741      25.071
  O       21.665     128.296      26.405
  C       21.143     126.304      25.194
  O       21.647     125.477      24.161
  C       21.637     125.919      26.574
  O       23.042     125.607      26.535
  C       21.396     127.230      27.358
  N       20.058     127.452      27.949
  C       19.782     126.987      29.233
  O       20.586     126.383      29.938
  N       18.524     127.251      29.711
  C       17.593     128.058      29.127
  O       16.506     128.307      29.629
  C       17.989     128.646      27.844
  C       19.171     128.315      27.317
  O       18.969     130.191      22.747
  O       17.266     128.301      23.079
  H       23.481     126.319      26.037
  H       18.577     130.112      21.857
  H       18.284     126.860      30.608
  H       17.300     129.331      27.367
  H       19.474     128.745      26.366
  H       22.120     127.330      28.175
  H       21.139     125.022      26.935
  H       20.049     126.283      25.210
  H       22.668     127.747      24.684
  H       21.059     129.658      24.241
  H       20.931     128.328      23.102
  P       20.705     124.363      23.499
  C       18.262     124.496      22.727
  O       19.503     125.171      22.805
  O       20.297     123.238      24.388
  O       21.554     123.857      22.236
  H       22.056     123.039      22.460
  H       17.500     125.203      22.385
  H       17.974     124.110      23.708
  H       18.331     123.675      22.009
  H       17.561     132.045      25.748
  H       18.158     132.039      24.106
  H       19.132     131.368      25.392

 3  4  5  6  7  8  9  10  11  12  13  23  28  29  30  31  32 0
 6-311+G(2d,p)
 ****
 33  34 0
 6-311+G(2d,p)
 ****
 1  2  14  15  16  17  18  19  20  21  22  24  25  26  27 0
 3-21G
 ****
 35  36  37  38  39  40  41  42  43  44  45 0
 3-21G
 ****


