%nproc=1
%NoSave
%Mem=1900MB
#P OB98/GEN NMR

erre ene a

0 1
  C     -990.757     -36.196    -571.958
  O     -991.690     -36.148    -573.048
  P     -993.240     -36.538    -572.888
  C     -994.465     -34.492    -573.868
  O     -994.102     -35.205    -572.683
  C     -993.501     -33.326    -574.136
  O     -992.155     -33.809    -574.301
  C     -993.799     -32.532    -575.406
  O     -994.914     -31.670    -575.215
  C     -992.468     -31.822    -575.633
  O     -992.366     -30.646    -574.818
  C     -991.455     -32.894    -575.166
  N     -990.839     -33.590    -576.289
  C     -990.197     -32.791    -577.241
  O     -990.223     -31.560    -577.143
  N     -989.556     -33.400    -578.292
  C     -989.621     -34.693    -578.421
  N     -988.966     -35.247    -579.480
  C     -990.360     -35.560    -577.490
  C     -990.939     -34.949    -576.457
  O     -993.495     -37.591    -571.862
  O     -993.684     -37.057    -574.338
  H     -991.432     -30.381    -574.821
  H     -994.387     -37.728    -574.233
  H     -990.417     -36.628    -577.650
  H     -991.495     -35.513    -575.717
  H     -990.666     -32.437    -574.558
  H     -992.333     -31.514    -576.666
  H     -993.989     -33.221    -576.239
  H     -993.519     -32.663    -573.259
  H     -988.459     -34.619    -580.093
  H     -995.479     -34.095    -573.729
  H     -988.951     -36.240    -579.671
  H     -994.466     -35.187    -574.713
  P     -996.296     -32.263    -574.690
  C     -996.283     -31.394    -572.275
  O     -996.150     -32.532    -573.114
  O     -996.852     -33.414    -575.471
  O     -997.295     -31.004    -574.745
  H     -998.200     -31.334    -574.929
  H     -996.562     -31.732    -571.271
  H     -997.058     -30.717    -572.647
  H     -995.326     -30.867    -572.223
  H     -989.790     -35.894    -572.303
  H     -990.704     -37.195    -571.577
  H     -991.081     -35.535    -571.182

 3  4  5  6  7  8  9  10  11  12  13  23  27  28  29  30  32 0
 6-311+G(2d,p)
 ****
 34  35 0
 6-311+G(2d,p)
 ****
 1  2  14  15  16  17  18  19  20  21  22  24  25  26 0
 3-21G
 ****
 31  33  36  37  38  39  40  41  42  43  44  45  46 0
 3-21G
 ****


