%nproc=1
%NoSave
%Mem=1900MB
#P OB98/GEN NMR

erre ene a

0 1
  C     -592.259     103.440    -613.582
  O     -591.203     103.484    -614.520
  P     -591.466     103.364    -616.102
  C     -590.099     101.199    -616.283
  O     -590.212     102.557    -616.690
  C     -589.517     100.331    -617.401
  O     -590.443     100.289    -618.523
  C     -588.159     100.809    -617.940
  O     -587.430      99.641    -618.313
  C     -588.568     101.582    -619.188
  O     -587.481     101.765    -620.101
  C     -589.733     100.738    -619.696
  N     -590.595     101.476    -620.621
  C     -590.091     101.696    -621.906
  O     -588.942     101.346    -622.190
  N     -590.875     102.358    -622.812
  C     -592.022     102.846    -622.442
  N     -592.758     103.489    -623.379
  C     -592.531     102.742    -621.055
  C     -591.785     102.048    -620.212
  O     -591.764     104.660    -616.785
  O     -592.652     102.304    -616.208
  H     -587.848     102.144    -620.932
  H     -593.517     102.729    -615.969
  H     -593.464     103.213    -620.775
  H     -592.071     101.913    -619.169
  H     -589.355      99.831    -620.213
  H     -588.924     102.582    -618.898
  H     -587.588     101.407    -617.241
  H     -589.419      99.300    -617.025
  H     -592.384     103.522    -624.325
  H     -591.099     100.836    -616.035
  H     -593.697     103.832    -623.220
  H     -589.481     101.129    -615.372
  P     -585.828      99.570    -618.171
  C     -585.023      99.706    -620.589
  O     -585.272      98.853    -619.491
  O     -585.330      98.988    -616.881
  O     -585.358     101.089    -618.346
  H     -584.443     101.193    -618.041
  H     -584.384      99.179    -621.319
  H     -584.481     100.612    -620.273
  H     -585.955      99.976    -621.073
  H     -591.862     103.537    -612.593
  H     -592.775     102.507    -613.669
  H     -592.940     104.243    -613.773

 3  4  5  6  7  8  9  10  11  12  13  23  27  28  29  30  32 0
 6-311+G(2d,p)
 ****
 34  35 0
 6-311+G(2d,p)
 ****
 1  2  14  15  16  17  18  19  20  21  22  24  25  26 0
 3-21G
 ****
 31  33  36  37  38  39  40  41  42  43  44  45  46 0
 3-21G
 ****


