%nproc=1
%NoSave
%Mem=1900MB
#P OB98/GEN NMR

erre ene a

0 1
  C       32.492      29.443    -159.440
  O       31.792      29.476    -158.211
  H       31.771      29.525    -160.256
  H       33.023      28.492    -159.533
  H       33.198      30.274    -159.508
  P       32.668      29.701    -156.885
  C       32.317      32.264    -156.678
  O       33.222      31.206    -156.956
  C       32.664      32.921    -155.347
  O       34.060      33.292    -155.316
  C       31.877      34.193    -155.049
  O       30.603      33.901    -154.490
  C       32.784      34.853    -154.023
  O       32.620      34.206    -152.742
  C       34.178      34.547    -154.588
  N       37.002      38.745    -154.930
  C       36.633      38.014    -153.817
  N       37.071      38.473    -152.625
  N       35.895      36.935    -153.865
  C       35.509      36.608    -155.121
  C       35.805      37.256    -156.300
  C       36.634      38.436    -156.233
  O       36.998      39.114    -157.191
  N       35.234      36.629    -157.377
  C       34.575      35.618    -156.848
  N       34.707      35.563    -155.482
  O       33.967      28.804    -157.163
  O       32.002      29.311    -155.610
  H       31.663      34.075    -152.610
  H       33.891      27.974    -156.655
  H       37.563      39.574    -154.835
  H       33.996      34.896    -157.407
  H       34.923      34.399    -153.798
  H       32.555      35.910    -153.876
  H       37.623      39.308    -152.514
  H       31.794      34.836    -155.934
  H       36.815      37.950    -151.796
  H       32.509      32.176    -154.555
  H       31.300      31.860    -156.632
  H       32.374      33.002    -157.485
  P       29.386      34.893    -154.814
  C       28.874      33.669    -157.042
  O       29.199      34.900    -156.410
  O       30.015      36.332    -154.506
  O       28.146      34.660    -154.022
  H       29.591      36.718    -153.715
  H       28.781      33.823    -158.097
  H       27.948      33.302    -156.652
  H       29.649      32.956    -156.853

 6  7  8  9  10  11  12  13  14  15  26  29  33  34 0
 6-311+G(2d,p)
 ****
 36  38  39  40  41 0
 6-311+G(2d,p)
 ****
 1  2  3  4  5  16  17  18  19  20  21  22  23  24  25 0
 3-21G
 ****
 27  28  30  31  32  35  37  42  43  44  45  46  47 0
 3-21G
 ****
 48  49 0
 3-21G
 ****


