%nproc=1
%NoSave
%Mem=1900MB
#P OB98/GEN NMR

erre ene a

0 1
  C     -332.470    -764.577     396.953
  O     -331.364    -763.784     397.382
  P     -329.832    -764.091     397.058
  C     -328.620    -763.336     399.259
  O     -328.918    -763.065     397.897
  C     -327.924    -762.159     399.976
  O     -326.742    -761.774     399.233
  C     -328.856    -760.931     399.967
  O     -329.857    -760.797     400.972
  C     -327.905    -759.745     399.875
  O     -327.572    -759.199     401.167
  C     -326.662    -760.327     399.219
  N     -324.005    -757.354     395.992
  C     -323.892    -757.467     397.362
  N     -323.005    -756.649     397.972
  N     -324.631    -758.288     398.073
  C     -325.539    -758.994     397.356
  C     -325.749    -758.953     395.992
  C     -324.910    -758.079     395.209
  O     -324.948    -757.960     393.987
  N     -326.764    -759.786     395.619
  C     -327.198    -760.306     396.765
  N     -326.474    -759.852     397.854
  O     -329.507    -764.265     395.608
  O     -329.587    -765.515     397.790
  H     -328.390    -759.139     401.684
  H     -328.925    -765.988     397.246
  H     -323.415    -756.723     395.488
  H     -328.020    -761.002     396.854
  H     -325.740    -760.064     399.773
  H     -328.361    -758.919     399.317
  H     -322.512    -755.911     397.497
  H     -329.410    -760.926     399.017
  H     -323.081    -756.568     398.995
  H     -327.592    -762.440     400.982
  H     -327.966    -764.230     399.286
  H     -329.527    -763.613     399.795
  P     -331.384    -761.239     400.835
  C     -332.430    -759.035     401.627
  O     -332.233    -760.393     401.905
  O     -331.413    -762.737     401.443
  O     -331.941    -761.229     399.442
  H     -332.232    -763.189     401.183
  H     -332.734    -758.522     402.561
  H     -333.203    -758.912     400.879
  H     -331.503    -758.570     401.268
  H     -333.380    -764.143     397.310
  H     -332.371    -765.568     397.343
  H     -332.488    -764.615     395.884

 3  4  5  6  7  8  9  10  11  12  23  26  30  31 0
 6-311+G(2d,p)
 ****
 33  35  36  37  38 0
 6-311+G(2d,p)
 ****
 1  2  13  14  15  16  17  18  19  20  21  22  24  25 0
 3-21G
 ****
 27  28  29  32  34  39  40  41  42  43  44  45  46  47  48  49 0
 3-21G
 ****


