%nproc=1
%NoSave
%Mem=1900MB
#P OB98/GEN NMR

erre ene a

0 1
  C       92.982    -455.131    -268.872
  O       92.625    -453.796    -269.158
  H       92.377    -455.798    -269.493
  H       92.786    -455.357    -267.820
  H       94.037    -455.300    -269.099
  P       93.433    -452.650    -268.377
  C       95.278    -452.133    -270.136
  O       94.951    -452.741    -268.893
  C       96.346    -451.065    -269.922
  O       95.865    -450.085    -268.975
  C       97.651    -451.596    -269.336
  O       98.463    -452.212    -270.319
  C       98.256    -450.320    -268.760
  O       98.947    -449.566    -269.764
  C       97.016    -449.550    -268.285
  N       96.302    -446.855    -264.020
  C       96.387    -446.487    -265.317
  N       96.560    -447.272    -266.401
  C       96.639    -448.566    -266.039
  C       96.574    -449.087    -264.759
  C       96.395    -448.169    -263.713
  N       96.345    -448.539    -262.389
  N       96.741    -450.458    -264.787
  C       96.888    -450.758    -266.063
  N       96.828    -449.646    -266.853
  O       93.506    -453.220    -266.881
  O       92.823    -451.291    -268.429
  H       98.264    -449.209    -270.364
  H       92.773    -452.850    -266.355
  H       96.311    -445.421    -265.509
  H       97.052    -451.755    -266.454
  H       97.073    -448.484    -268.534
  H       98.973    -450.543    -267.969
  H       97.442    -452.290    -268.514
  H       96.528    -450.557    -270.876
  H       94.381    -451.666    -270.556
  H       95.635    -452.905    -270.826
  H       96.238    -447.823    -261.690
  H       96.520    -449.503    -262.143
  P       99.897    -452.771    -269.885
  C       99.523    -455.299    -269.410
  O       99.659    -453.992    -268.872
  O      100.477    -451.608    -268.947
  O      100.817    -453.079    -271.018
  H      101.107    -451.053    -269.442
  H       99.371    -455.998    -268.614
  H      100.411    -455.558    -269.947
  H       98.684    -455.326    -270.074

 6  7  8  9  10  11  12  13  14  15  25  28  32  33  34  35 0
 6-311+G(2d,p)
 ****
 36  37  40 0
 6-311+G(2d,p)
 ****
 1  2  3  4  5  16  17  18  19  20  21  22  23  24 0
 3-21G
 ****
 26  27  29  30  31  38  39 41  42  43  44  45  46  47  48 0
 3-21G
 ****


