%nproc=1
%NoSave
%Mem=1900MB
#P OB98/GEN NMR

erre ene a

0 1
  C      311.255    -210.036     390.979
  O      311.824    -211.352     391.038
  P      312.521    -211.966     389.719
  C      311.853    -213.499     387.719
  O      311.420    -212.673     388.790
  C      310.691    -214.340     387.163
  O      310.042    -215.080     388.243
  C      309.595    -213.525     386.458
  O      309.068    -214.348     385.406
  C      308.555    -213.358     387.556
  O      307.270    -213.029     387.060
  C      308.643    -214.727     388.228
  N      308.076    -214.776     389.580
  C      306.762    -214.350     389.757
  O      306.063    -213.889     388.860
  N      306.278    -214.454     391.033
  C      306.961    -214.893     392.129
  O      306.480    -214.927     393.249
  C      308.360    -215.294     391.885
  C      308.840    -215.221     390.644
  O      313.322    -213.219     390.315
  O      313.460    -211.044     389.009
  H      307.348    -212.173     386.594
  H      314.223    -213.235     389.951
  H      305.320    -214.172     391.177
  H      308.937    -215.646     392.732
  H      309.864    -215.522     390.444
  H      308.135    -215.473     387.600
  H      308.871    -212.548     388.227
  H      309.957    -212.575     386.055
  H      311.108    -215.087     386.480
  H      312.639    -214.172     388.073
  H      312.273    -212.867     386.927
  P      309.558    -214.064     383.898
  C      309.433    -212.001     382.293
  O      309.023    -212.605     383.496
  O      308.585    -215.047     383.092
  O      311.005    -214.327     383.659
  H      307.662    -214.999     383.392
  H      309.463    -212.716     381.468
  H      310.423    -211.550     382.428
  H      308.716    -211.208     382.034
  H      310.838    -209.785     391.932
  H      310.486    -210.013     390.235
  H      312.017    -209.329     390.726

 3  4  5  6  7  8  9  10  11  12  13  23  28  29  30  31  32 0
 6-311+G(2d,p)
 ****
 33  34 0
 6-311+G(2d,p)
 ****
 1  2  14  15  16  17  18  19  20  21  22  24  25  26 0
 3-21G
 ****
 27  35  36  37  38  39  40  41  42  43  44  45 0
 3-21G
 ****


