%nproc=1
%NoSave
%Mem=1900MB
#P OB98/GEN NMR

erre ene a

0 1
  C       12.267     -99.050     161.475
  O       11.325     -98.087     161.903
  H       12.486     -98.877     160.418
  H       11.854    -100.056     161.584
  H       13.197     -98.964     162.043
  P       10.903     -98.052     163.450
  C        9.439    -100.149     163.189
  O        9.473     -98.777     163.553
  C        8.179    -100.819     163.737
  O        8.275    -100.885     165.183
  C        6.886    -100.076     163.384
  O        5.867    -101.041     163.124
  C        6.557     -99.318     164.657
  O        5.161     -99.053     164.785
  C        7.099    -100.260     165.731
  N        5.123     -97.835     169.698
  C        4.502     -98.522     168.674
  N        3.152     -98.548     168.688
  N        5.150     -99.127     167.712
  C        6.496     -99.033     167.828
  C        7.228     -98.382     168.794
  C        6.501     -97.703     169.844
  O        6.995     -97.070     170.770
  N        8.577     -98.492     168.551
  C        8.656     -99.202     167.442
  N        7.422     -99.545     166.959
  O       10.962     -96.708     164.102
  O       11.895     -99.096     164.146
  H        5.030     -98.628     165.661
  H       12.630     -98.630     164.589
  H        4.576     -97.378     170.407
  H        9.575     -99.487     166.946
  H        6.381    -101.044     166.001
  H        7.093     -98.360     164.667
  H        2.588     -98.117     169.406
  H        6.997     -99.410     162.525
  H        2.676     -99.064     167.959
  H        8.149    -101.853     163.374
  H       10.327    -100.640     163.607
  H        9.467    -100.238     162.099
  P        5.690    -101.595     161.630
  C        3.845     -99.895     161.045
  O        4.194    -101.271     161.148
  O        6.144    -103.000     161.403
  O        6.563    -100.560     160.766
  H        6.916    -101.024     159.984
  H        2.830     -99.808     160.717
  H        4.490     -99.415     160.339
  H        3.952     -99.427     162.001

 6  7  8  9  10  11  12  13  14  15  26  29  33  34 0
 6-311+G(2d,p)
 ****
 36  38  39  40  41 0
 6-311+G(2d,p)
 ****
 1  2  3  4  5  16  17  18  19  20  21  22  23  24  25 0
 3-21G
 ****
 27  28  30  31  32  35  37  42  43  44  45  46  47 0
 3-21G
 ****
 48  49 0
 3-21G
 ****


