%nproc=1
%NoSave
%Mem=1900MB
#P OB98/GEN NMR

erre ene a

0 1
  C      591.471    -668.732    -255.465
  O      590.458    -667.870    -256.003
  P      589.931    -668.164    -257.489
  C      587.440    -667.717    -256.891
  O      588.556    -667.367    -257.696
  C      586.202    -666.916    -257.310
  O      586.212    -665.589    -256.744
  C      586.087    -666.718    -258.818
  O      585.504    -667.845    -259.450
  C      585.142    -665.533    -258.882
  O      583.778    -665.983    -258.704
  C      585.588    -664.681    -257.699
  N      586.403    -659.684    -257.708
  C      585.314    -660.410    -257.242
  N      584.310    -659.707    -256.689
  N      585.234    -661.726    -257.304
  C      586.335    -662.294    -257.866
  C      587.461    -661.683    -258.381
  C      587.527    -660.240    -258.310
  O      588.445    -659.543    -258.719
  N      588.347    -662.597    -258.864
  C      587.758    -663.770    -258.659
  N      586.532    -663.633    -258.063
  O      589.445    -669.691    -257.396
  O      590.950    -667.976    -258.560
  H      583.790    -666.633    -257.972
  H      589.522    -670.116    -258.271
  H      586.403    -658.681    -257.638
  H      588.195    -664.726    -258.906
  H      584.746    -664.193    -257.189
  H      585.178    -665.020    -259.863
  H      584.330    -658.700    -256.557
  H      587.065    -666.452    -259.267
  H      583.524    -660.223    -256.304
  H      585.307    -667.444    -256.948
  H      587.656    -667.526    -255.832
  H      587.261    -668.795    -256.971
  P      586.353    -668.596    -260.596
  C      587.033    -670.919    -259.652
  O      586.094    -670.158    -260.388
  O      587.864    -668.382    -260.106
  O      586.133    -668.066    -261.976
  H      588.453    -668.322    -260.890
  H      586.610    -671.915    -259.477
  H      587.237    -670.453    -258.679
  H      587.968    -671.017    -260.215
  H      591.720    -668.415    -254.474
  H      592.343    -668.687    -256.083
  H      591.106    -669.737    -255.437

 3  4  5  6  7  8  9  10  11  12  23  26  30  31 0
 6-311+G(2d,p)
 ****
 33  35  36  37  38 0
 6-311+G(2d,p)
 ****
 1  2  13  14  15  16  17  18  19  20  21  22  24  25 0
 3-21G
 ****
 27  28  29  32  34  39  40  41  42  43  44  45  46  47  48  49 0
 3-21G
 ****


