%nproc=1
%NoSave
%Mem=1900MB
#P OB98/GEN NMR

erre ene a

0 1
  C      101.424     457.518     950.420
  O      102.478     456.574     950.482
  H      100.599     457.153     951.035
  H      101.072     457.630     949.390
  H      101.765     458.481     950.806
  P      103.783     456.896     949.610
  C      105.209     457.173     951.743
  O      105.012     456.439     950.537
  C      106.125     456.406     952.701
  O      105.372     455.316     953.294
  C      107.354     455.800     952.001
  O      108.485     455.905     952.876
  C      106.983     454.334     951.829
  O      108.127     453.489     951.748
  C      106.097     454.099     953.058
  N      104.665     449.479     954.712
  C      105.527     450.390     955.215
  N      105.838     451.606     954.715
  C      105.119     451.869     953.602
  C      104.215     451.027     952.976
  C      104.004     449.778     953.576
  N      103.143     448.832     953.058
  N      103.715     451.636     951.833
  C      104.305     452.817     951.785
  N      105.177     452.995     952.832
  O      103.879     458.288     949.072
  O      103.738     455.739     948.504
  H      108.578     453.512     952.624
  H      103.515     454.873     948.908
  H      106.040     450.111     956.130
  H      104.138     453.570     951.016
  H      106.680     453.853     953.950
  H      106.399     454.222     950.903
  H      107.574     456.287     951.047
  H      106.418     457.076     953.518
  H      104.241     457.356     952.235
  H      103.034     447.966     953.555
  H      102.623     449.044     952.219
  H      105.649     458.141     951.480
  P      109.942     455.619     952.267
  C      111.063     457.807     953.074
  O      111.037     456.380     953.178
  O      110.084     455.807     950.792
  O      110.186     454.081     952.676
  H      110.669     453.641     951.946
  H      111.823     458.198     953.718
  H      110.112     458.203     953.363
  H      111.274     458.087     952.063

 6  7  8  9  10  11  12  13  14  15  25  28  32  33  34  35 0
 6-311+G(2d,p)
 ****
 36  39  40 0
 6-311+G(2d,p)
 ****
 1  2  3  4  5  16  17  18  19  20  21  22  23  24 0
 3-21G
 ****
 26  27  29  30  31  37  38  41  42  43  44  45  46  47 0
 3-21G
 ****
 48 0
 3-21G
 ****


