%nproc=1
%NoSave
%Mem=1900MB
#P OB98/GEN NMR

erre ene a

0 1
  C      -34.468     117.501    -143.144
  O      -35.740     117.548    -143.757
  P      -36.572     118.918    -143.767
  C      -37.721     120.457    -142.054
  O      -37.010     119.235    -142.256
  C      -38.853     120.250    -141.046
  O      -39.893     119.425    -141.619
  C      -38.423     119.534    -139.771
  O      -37.726     120.416    -138.909
  C      -39.768     119.056    -139.236
  O      -40.439     120.117    -138.532
  C      -40.522     118.712    -140.531
  N      -43.426     114.512    -140.606
  C      -43.652     115.755    -140.126
  N      -42.806     116.812    -140.109
  C      -41.619     116.477    -140.640
  C      -41.234     115.242    -141.138
  C      -42.211     114.227    -141.135
  N      -42.014     112.976    -141.682
  N      -39.919     115.284    -141.574
  C      -39.524     116.521    -141.325
  N      -40.533     117.293    -140.824
  O      -37.678     118.986    -144.773
  O      -35.467     120.035    -144.069
  H      -41.348     119.819    -138.349
  H      -35.688     120.500    -144.899
  H      -44.639     115.925    -139.704
  H      -38.527     116.903    -141.505
  H      -41.568     119.045    -140.498
  H      -39.673     118.216    -138.540
  H      -37.805     118.659    -140.019
  H      -39.287     121.235    -140.812
  H      -38.132     120.778    -143.015
  H      -42.823     112.377    -141.755
  H      -41.243     112.849    -142.335
  H      -37.027     121.223    -141.694
  P      -36.579     119.842    -137.946
  C      -36.129     117.648    -136.693
  O      -37.051     118.385    -137.474
  O      -36.134     120.760    -136.852
  O      -35.373     119.513    -138.950
  H      -34.517     119.643    -138.493
  H      -35.358     117.222    -137.343
  H      -36.661     116.835    -136.192
  H      -35.655     118.285    -135.936
  H      -34.065     116.514    -143.234
  H      -34.561     117.755    -142.109
  H      -33.814     118.198    -143.625

 3  4  5  6  7  8  9  10  11  12  22  25  29  30  31  32 0
 6-311+G(2d,p)
 ****
 33  36  37 0
 6-311+G(2d,p)
 ****
 1  2  13  14  15  16  17  18  19  20  21  23  24  26 0
 3-21G
 ****
 27  28  34  35  38  39  40  41  42  43  44  45  46  47  48 0
 3-21G
 ****


