%nproc=1
%NoSave
%Mem=1900MB
#P OB98/GEN NMR

erre ene a

0 1
  C       67.538     253.210     253.905
  O       68.537     253.501     254.864
  H       66.577     253.114     254.417
  H       67.767     252.266     253.403
  H       67.469     254.016     253.170
  P       69.996     253.851     254.305
  C       70.539     255.647     256.143
  O       70.335     255.354     254.767
  C       70.118     257.085     256.437
  O       68.722     257.291     256.144
  C       70.241     257.477     257.900
  O       71.580     257.622     258.316
  C       69.448     258.775     257.906
  O       70.229     259.861     257.387
  C       68.287     258.427     256.940
  N       67.043     258.148     257.643
  C       66.198     259.249     257.848
  O       66.521     260.362     257.433
  N       65.029     259.056     258.540
  C       64.716     257.877     258.967
  N       63.548     257.756     259.655
  C       65.562     256.685     258.750
  C       66.701     256.892     258.091
  O       69.742     254.013     252.735
  O       71.066     252.872     254.661
  H       69.618     260.614     257.281
  H       69.032     254.641     252.518
  H       65.255     255.717     259.118
  H       67.379     256.076     257.892
  H       68.106     259.254     256.241
  H       69.135     259.061     258.910
  H       69.706     256.755     258.533
  H       70.707     257.750     255.792
  H       63.002     258.595     259.802
  H       71.582     255.485     256.427
  H       63.216     256.894     260.064
  H       69.925     254.948     256.724
  P       72.193     256.658     259.444
  C       74.216     255.595     258.257
  O       72.861     255.422     258.664
  O       71.247     256.269     260.530
  O       73.477     257.467     259.959
  H       74.143     257.654     259.273
  H       74.552     254.714     257.751
  H       74.828     255.767     259.118
  H       74.286     256.434     257.597

 6  7  8  9  10  11  12  13  14  15  16  26  30  31  32  33  35 0
 6-311+G(2d,p)
 ****
 37  38 0
 6-311+G(2d,p)
 ****
 1  2  3  4  5  17  18  19  20  21  22  23  24  25 0
 3-21G
 ****
 27  28  29  34  36  39  40  41  42  43  44  45  46 0
 3-21G
 ****


