%nproc=1
%NoSave
%Mem=1900MB
#P OB98/GEN NMR

erre ene a

0 1
  C      593.992     137.729    -263.412
  O      595.257     138.308    -263.661
  H      593.848     137.646    -262.331
  H      593.953     136.724    -263.844
  H      593.190     138.344    -263.826
  P      595.642     138.707    -265.161
  C      594.924     141.143    -264.692
  O      594.779     140.010    -265.532
  C      594.606     142.428    -265.458
  O      595.723     142.734    -266.343
  C      593.337     142.350    -266.336
  O      592.783     143.676    -266.396
  C      593.939     141.937    -267.667
  O      593.030     142.050    -268.731
  C      595.173     142.861    -267.672
  N      596.178     142.541    -268.688
  C      596.863     143.598    -269.276
  O      596.692     144.778    -268.999
  N      597.797     143.248    -270.227
  C      598.099     141.976    -270.614
  O      598.958     141.720    -271.445
  C      597.336     140.906    -269.964
  C      596.424     141.228    -269.045
  O      595.577     137.603    -266.161
  O      597.127     139.296    -265.027
  H      597.773     138.620    -265.318
  H      593.426     141.647    -269.533
  H      598.305     143.999    -270.648
  H      597.540     139.883    -270.266
  H      595.849     140.462    -268.539
  H      594.855     143.904    -267.801
  H      594.233     140.889    -267.637
  H      592.593     141.658    -265.943
  H      594.538     143.260    -264.738
  H      595.961     141.178    -264.329
  H      594.253     141.046    -263.828
  P      591.729     144.238    -265.328
  C      593.633     145.822    -264.585
  O      592.550     145.014    -264.171
  O      590.782     143.206    -264.807
  O      590.935     145.412    -266.093
  H      590.057     145.518    -265.691
  H      594.087     146.275    -263.729
  H      593.277     146.585    -265.246
  H      594.355     145.218    -265.094

 6  7  8  9  10  11  12  13  14  15  16  27  31  32  33  34  35 0
 6-311+G(2d,p)
 ****
 36  37 0
 6-311+G(2d,p)
 ****
 1  2  3  4  5  17  18  19  20  21  22  23  24  25 0
 3-21G
 ****
 26  28  29  30  38  39  40  41  42  43  44  45 0
 3-21G
 ****


