%nproc=1
%NoSave
%Mem=1900MB
#P OB98/GEN NMR

erre ene a

0 1
  C       96.509    -385.354    -219.716
  O       96.536    -386.686    -220.190
  H       96.242    -384.691    -220.543
  H       97.494    -385.070    -219.340
  H       95.765    -385.247    -218.923
  P       96.794    -387.840    -219.108
  C       98.662    -389.060    -220.452
  O       97.347    -389.109    -219.928
  C       98.698    -389.739    -221.822
  O       98.317    -391.131    -221.660
  C       97.733    -389.113    -222.835
  O       98.334    -389.141    -224.133
  C       96.538    -390.050    -222.802
  O       95.747    -390.013    -223.981
  C       97.233    -391.399    -222.574
  N       96.331    -392.409    -222.027
  C       95.768    -393.316    -222.919
  O       96.033    -393.375    -224.119
  N       94.855    -394.188    -222.379
  C       94.448    -394.224    -221.080
  O       93.610    -395.016    -220.661
  C       95.068    -393.236    -220.187
  C       95.967    -392.386    -220.693
  O       95.318    -388.291    -218.690
  O       97.631    -387.453    -217.935
  H       95.004    -387.768    -217.927
  H       96.346    -390.137    -224.749
  H       94.440    -394.853    -223.014
  H       94.765    -393.230    -219.149
  H       96.436    -391.638    -220.066
  H       97.673    -391.764    -223.509
  H       95.891    -389.801    -221.953
  H       97.453    -388.090    -222.580
  H       99.729    -389.727    -222.199
  H       99.339    -389.586    -219.772
  H       98.981    -388.015    -220.538
  P       99.005    -387.783    -224.665
  C       97.717    -387.787    -226.938
  O       98.962    -387.869    -226.268
  O      100.541    -388.024    -224.295
  O       98.392    -386.557    -224.069
  H      100.829    -388.946    -224.405
  H       97.875    -387.862    -227.994
  H       97.251    -386.850    -226.712
  H       97.084    -388.587    -226.614

 6  7  8  9  10  11  12  13  14  15  16  27  31  32  33  34  35 0
 6-311+G(2d,p)
 ****
 36  37 0
 6-311+G(2d,p)
 ****
 1  2  3  4  5  17  18  19  20  21  22  23  24  25 0
 3-21G
 ****
 26  28  29  30  38  39  40  41  42  43  44  45 0
 3-21G
 ****


