%nproc=1
%NoSave
%Mem=1900MB
#P OB98/GEN NMR

erre ene a

0 1
  C       28.018     279.749      51.581
  O       26.977     280.388      50.871
  H       27.963     278.674      51.394
  H       27.903     279.924      52.655
  H       28.991     280.118      51.246
  P       26.904     281.987      50.978
  C       24.795     282.097      52.497
  O       26.197     282.311      52.383
  C       24.209     283.057      53.530
  O       24.780     282.773      54.828
  C       24.511     284.527      53.260
  O       23.658     285.072      52.268
  C       24.300     285.130      54.642
  O       22.914     285.402      54.893
  C       24.789     284.011      55.572
  N       27.509     287.022      58.658
  C       26.186     286.958      58.393
  N       25.536     286.110      57.568
  C       26.401     285.258      56.993
  C       27.775     285.208      57.157
  C       28.336     286.144      58.042
  N       29.685     286.235      58.280
  N       28.321     284.222      56.358
  C       27.297     283.684      55.733
  N       26.119     284.273      56.086
  O       25.788     282.369      49.895
  O       28.192     282.700      50.733
  H       22.666     286.142      54.308
  H       26.218     282.598      49.050
  H       25.566     287.687      58.911
  H       27.360     282.875      55.009
  H       24.128     283.872      56.436
  H       24.841     286.071      54.751
  H       25.564     284.652      52.976
  H       23.127     282.887      53.589
  H       24.611     281.066      52.818
  H       24.332     282.254      51.517
  H       30.021     286.945      58.910
  H       30.320     285.655      57.744
  P       24.244     286.191      51.286
  C       23.534     288.059      52.947
  O       24.572     287.490      52.168
  O       22.966     286.629      50.424
  O       25.369     285.731      50.419
  H       22.980     286.194      49.550
  H       23.909     288.912      53.473
  H       23.178     287.335      53.650
  H       22.731     288.360      52.307

 6  7  8  9  10  11  12  13  14  15  25  28  32  33  34  35 0
 6-311+G(2d,p)
 ****
 36  37  40 0
 6-311+G(2d,p)
 ****
 1  2  3  4  5  16  17  18  19  20  21  22  23  24 0
 3-21G
 ****
 26  27  29  30  31  38  39 41  42  43  44  45  46  47  48 0
 3-21G
 ****


