%nproc=1
%NoSave
%Mem=1900MB
#P OB98/GEN NMR

erre ene a

0 1
  C     -120.544     -11.469      76.479
  O     -121.890     -11.903      76.381
  P     -122.310     -13.397      76.794
  C     -123.170     -14.486      74.614
  O     -123.508     -13.780      75.799
  C     -124.422     -14.713      73.770
  O     -125.340     -15.561      74.486
  C     -125.199     -13.444      73.439
  O     -124.558     -12.706      72.411
  C     -126.560     -14.026      73.080
  O     -126.546     -14.537      71.739
  C     -126.682     -15.193      74.083
  N     -127.505     -14.863      75.239
  C     -128.884     -14.775      75.018
  O     -129.362     -14.977      73.902
  N     -129.704     -14.490      76.082
  C     -129.195     -14.289      77.258
  N     -130.059     -14.079      78.287
  C     -127.744     -14.317      77.523
  C     -126.969     -14.613      76.481
  O     -122.618     -13.583      78.241
  O     -121.114     -14.311      76.265
  H     -126.506     -13.763      71.143
  H     -120.379     -14.418      76.918
  H     -127.365     -14.128      78.518
  H     -125.894     -14.673      76.599
  H     -127.101     -16.076      73.588
  H     -127.376     -13.301      73.154
  H     -125.291     -12.811      74.330
  H     -124.125     -15.230      72.848
  H     -131.041     -14.242      78.095
  H     -122.746     -15.456      74.895
  H     -129.771     -14.200      79.252
  H     -122.416     -13.920      74.058
  P     -124.542     -11.108      72.544
  C     -124.467     -10.596      70.003
  O     -123.778     -10.565      71.239
  O     -123.517     -10.849      73.746
  O     -125.878     -10.497      72.802
  H     -124.002     -10.660      74.570
  H     -123.913      -9.987      69.283
  H     -125.475     -10.186      70.110
  H     -124.518     -11.622      69.630
  H     -120.473     -10.450      76.159
  H     -119.925     -12.082      75.857
  H     -120.217     -11.547      77.495

 3  4  5  6  7  8  9  10  11  12  13  23  27  28  29  30  32 0
 6-311+G(2d,p)
 ****
 34  35 0
 6-311+G(2d,p)
 ****
 1  2  14  15  16  17  18  19  20  21  22  24  25  26 0
 3-21G
 ****
 31  33  36  37  38  39  40  41  42  43  44  45  46 0
 3-21G
 ****


