%nproc=1
%NoSave
%Mem=1900MB
#P OB98/GEN NMR

erre ene a

0 1
  C     -194.988     -66.717     115.187
  O     -194.046     -67.226     114.257
  P     -193.029     -66.251     113.490
  C     -191.119     -66.621     115.171
  O     -192.052     -65.692     114.632
  C     -190.001     -65.879     115.897
  O     -188.931     -65.632     114.955
  C     -190.365     -64.506     116.460
  O     -190.983     -64.536     117.738
  C     -188.984     -63.876     116.584
  O     -188.328     -64.373     117.765
  C     -188.278     -64.393     115.328
  N     -188.186     -59.447     114.025
  C     -188.053     -60.071     115.216
  N     -188.108     -61.393     115.484
  C     -188.282     -62.096     114.354
  C     -188.428     -61.603     113.069
  C     -188.374     -60.206     112.921
  N     -188.486     -59.575     111.702
  N     -188.608     -62.634     112.167
  C     -188.556     -63.728     112.899
  N     -188.352     -63.456     114.223
  O     -193.684     -65.225     112.635
  O     -192.085     -67.239     112.662
  H     -188.393     -65.346     117.739
  H     -191.611     -66.743     111.966
  H     -187.884     -59.422     116.071
  H     -188.664     -64.732     112.515
  H     -187.221     -64.623     115.504
  H     -189.019     -62.787     116.675
  H     -190.961     -63.927     115.744
  H     -189.610     -66.532     116.687
  H     -190.691     -67.197     114.343
  H     -188.305     -58.584     111.675
  H     -188.463     -60.144     110.867
  H     -191.635     -67.313     115.841
  P     -191.963     -63.315     118.106
  C     -193.900     -64.592     116.897
  O     -193.168     -63.397     117.052
  O     -191.291     -61.991     118.212
  O     -192.636     -63.802     119.474
  H     -193.226     -64.569     119.395
  H     -194.767     -64.393     116.260
  H     -194.255     -64.962     117.861
  H     -193.279     -65.352     116.415
  H     -195.568     -67.523     115.585
  H     -195.635     -66.022     114.695
  H     -194.472     -66.222     115.983

 3  4  5  6  7  8  9  10  11  12  22  25  29  30  31  32 0
 6-311+G(2d,p)
 ****
 33  36  37 0
 6-311+G(2d,p)
 ****
 1  2  13  14  15  16  17  18  19  20  21  23  24  26 0
 3-21G
 ****
 27  28  34  35  38  39  40  41  42  43  44  45  46  47  48 0
 3-21G
 ****


