%nproc=1
%NoSave
%Mem=1900MB
#P OB98/GEN NMR

erre ene a

0 1
  C      217.835    -112.656     -17.004
  O      216.830    -112.244     -17.910
  H      217.398    -112.731     -16.006
  H      218.645    -111.922     -16.984
  H      218.226    -113.635     -17.293
  P      217.272    -112.090     -19.443
  C      217.112    -114.557     -20.270
  O      216.526    -113.265     -20.239
  C      216.728    -115.287     -21.562
  O      217.566    -116.473     -21.695
  C      215.269    -115.770     -21.594
  O      214.843    -115.798     -22.967
  C      215.403    -117.191     -21.073
  O      214.231    -117.933     -21.321
  C      216.677    -117.607     -21.801
  N      217.060    -122.692     -22.154
  C      216.396    -121.787     -22.904
  N      216.351    -120.448     -22.756
  C      217.109    -120.058     -21.717
  C      217.850    -120.863     -20.868
  C      217.805    -122.246     -21.115
  N      218.473    -123.172     -20.347
  N      218.497    -120.100     -19.913
  C      218.152    -118.858     -20.184
  N      217.310    -118.785     -21.259
  O      218.804    -112.549     -19.433
  O      217.101    -110.728     -20.027
  H      213.502    -117.641     -20.734
  H      219.385    -111.769     -19.358
  H      215.821    -122.194     -23.732
  H      218.472    -117.981     -19.634
  H      216.496    -117.788     -22.868
  H      215.554    -117.195     -19.989
  H      214.590    -115.139     -21.014
  H      216.955    -114.643     -22.419
  H      216.753    -115.121     -19.403
  H      218.201    -114.465     -20.214
  H      218.376    -124.146     -20.582
  H      219.017    -122.855     -19.560
  P      213.826    -114.670     -23.494
  C      215.482    -112.713     -24.016
  O      214.607    -113.713     -24.517
  O      213.680    -113.726     -22.205
  O      212.490    -115.160     -23.944
  H      212.808    -113.288     -22.219
  H      215.913    -112.174     -24.834
  H      216.260    -113.174     -23.443
  H      214.933    -112.038     -23.394

 6  7  8  9  10  11  12  13  14  15  25  28  32  33  34  35 0
 6-311+G(2d,p)
 ****
 36  37  40 0
 6-311+G(2d,p)
 ****
 1  2  3  4  5  16  17  18  19  20  21  22  23  24 0
 3-21G
 ****
 26  27  29  30  31  38  39 41  42  43  44  45  46  47  48 0
 3-21G
 ****


