%nproc=1
%NoSave
%Mem=1900MB
#P OB98/GEN NMR

erre ene a

0 1
  C      115.784     -73.604    -209.347
  O      115.779     -72.523    -208.434
  H      114.994     -73.445    -210.089
  H      115.587     -74.540    -208.818
  H      116.747     -73.665    -209.864
  P      117.009     -72.447    -207.413
  C      115.786     -74.058    -205.737
  O      116.952     -73.775    -206.501
  C      116.177     -74.537    -204.343
  O      117.017     -75.705    -204.417
  C      117.008     -73.542    -203.552
  O      116.255     -72.437    -203.098
  C      117.520     -74.434    -202.428
  O      116.570     -74.540    -201.360
  C      117.699     -75.794    -203.140
  N      119.098     -76.151    -203.282
  C      119.771     -76.427    -202.085
  O      119.169     -76.376    -201.008
  N      121.110     -76.712    -202.132
  C      121.733     -76.699    -203.271
  N      123.066     -76.956    -203.246
  C      121.062     -76.415    -204.558
  C      119.755     -76.153    -204.492
  O      116.549     -71.293    -206.405
  O      118.336     -72.211    -208.046
  H      115.798     -75.021    -201.724
  H      115.642     -71.404    -206.068
  H      121.622     -76.427    -205.479
  H      119.184     -75.933    -205.384
  H      117.195     -76.593    -202.577
  H      118.445     -74.040    -201.991
  H      117.875     -73.213    -204.145
  H      115.257     -74.807    -203.804
  H      123.497     -77.091    -202.340
  H      115.172     -74.814    -206.241
  H      123.665     -76.896    -204.057
  H      115.197     -73.141    -205.677
  P      116.863     -70.955    -203.091
  C      118.158     -71.540    -200.940
  O      118.242     -71.032    -202.266
  O      115.934     -69.886    -202.637
  O      117.387     -70.775    -204.595
  H      118.061     -71.420    -204.875
  H      119.132     -71.542    -200.497
  H      117.775     -72.539    -200.964
  H      117.504     -70.921    -200.362

 6  7  8  9  10  11  12  13  14  15  16  26  30  31  32  33  35 0
 6-311+G(2d,p)
 ****
 37  38 0
 6-311+G(2d,p)
 ****
 1  2  3  4  5  17  18  19  20  21  22  23  24  25 0
 3-21G
 ****
 27  28  29  34  36  39  40  41  42  43  44  45  46 0
 3-21G
 ****


