%nproc=1
%NoSave
%Mem=1900MB
#P OB98/GEN NMR

erre ene a

0 1
  C     -483.564      22.302    -272.581
  O     -482.824      23.434    -272.999
  P     -481.584      23.216    -273.990
  C     -482.638      23.506    -276.382
  O     -482.195      22.635    -275.361
  C     -482.386      22.886    -277.758
  O     -480.982      22.513    -277.857
  C     -483.216      21.627    -278.049
  O     -483.525      21.640    -279.447
  C     -482.241      20.500    -277.731
  O     -482.584      19.285    -278.370
  C     -480.924      21.119    -278.212
  N     -479.739      20.491    -277.631
  C     -479.422      19.199    -278.045
  O     -480.092      18.546    -278.846
  N     -478.306      18.646    -277.468
  C     -477.533      19.220    -276.500
  O     -476.552      18.676    -276.007
  C     -477.943      20.566    -276.071
  C     -479.001      21.131    -276.653
  O     -480.867      21.953    -273.316
  O     -480.724      24.421    -274.152
  H     -481.496      21.324    -272.929
  H     -483.549      19.166    -278.301
  H     -478.036      17.730    -277.777
  H     -477.364      21.050    -275.293
  H     -479.323      22.123    -276.355
  H     -480.864      21.072    -279.307
  H     -482.229      20.330    -276.650
  H     -484.132      21.588    -277.462
  H     -482.571      23.656    -278.521
  H     -482.094      24.457    -276.312
  H     -483.702      23.719    -276.238
  P     -484.847      20.851    -279.939
  C     -486.629      22.759    -280.080
  O     -486.110      21.653    -279.375
  O     -484.780      19.567    -278.976
  O     -484.862      20.490    -281.386
  H     -484.627      19.801    -278.048
  H     -487.652      22.943    -279.738
  H     -486.651      22.574    -281.156
  H     -486.022      23.648    -279.870
  H     -484.352      22.613    -271.927
  H     -482.918      21.625    -272.063
  H     -483.982      21.813    -273.436

 3  4  5  6  7  8  9  10  11  12  13  24  28  29  30  31  32 0
 6-311+G(2d,p)
 ****
 33  34 0
 6-311+G(2d,p)
 ****
 1  2  14  15  16  17  18  19  20  21  22  23  25  26  27 0
 3-21G
 ****
 35  36  37  38  39  40  41  42  43  44  45 0
 3-21G
 ****


