%nproc=1
%NoSave
%Mem=1900MB
#P OB98/GEN NMR

erre ene a

0 1
  C     -264.646     286.122     436.529
  O     -265.665     285.590     437.347
  H     -264.200     286.985     437.036
  H     -265.064     286.460     435.576
  H     -263.862     285.380     436.349
  P     -266.349     284.216     436.869
  C     -268.651     284.888     437.883
  O     -267.577     283.953     437.869
  C     -269.249     285.006     439.287
  O     -268.369     285.830     440.099
  C     -270.642     285.635     439.308
  O     -271.426     284.965     440.301
  C     -270.378     287.063     439.751
  O     -271.517     287.666     440.373
  C     -269.160     286.895     440.663
  N     -268.400     288.132     440.775
  C     -268.963     289.141     441.562
  O     -270.052     288.974     442.105
  N     -268.306     290.353     441.659
  C     -267.227     290.552     440.965
  N     -266.642     291.781     441.082
  C     -266.631     289.537     440.072
  C     -267.262     288.367     440.032
  O     -265.284     283.103     437.299
  O     -266.696     284.149     435.424
  H     -271.786     287.102     441.132
  H     -265.300     282.346     436.679
  H     -265.752     289.764     439.494
  H     -266.901     287.556     439.400
  H     -269.475     286.575     441.668
  H     -270.119     287.681     438.878
  H     -271.156     285.585     438.346
  H     -269.263     284.000     439.738
  H     -267.089     292.450     441.693
  H     -269.426     284.548     437.190
  H     -265.828     292.061     440.556
  H     -268.285     285.862     437.541
  P     -272.975     284.727     439.945
  C     -273.772     286.009     442.070
  O     -273.814     284.800     441.324
  O     -273.032     283.179     439.551
  O     -273.484     285.607     438.853
  H     -273.167     283.091     438.593
  H     -274.371     285.906     442.950
  H     -274.152     286.811     441.472
  H     -272.761     286.221     442.349

 6  7  8  9  10  11  12  13  14  15  16  26  30  31  32  33  35 0
 6-311+G(2d,p)
 ****
 37  38 0
 6-311+G(2d,p)
 ****
 1  2  3  4  5  17  18  19  20  21  22  23  24  25 0
 3-21G
 ****
 27  28  29  34  36  39  40  41  42  43  44  45  46 0
 3-21G
 ****


