%nproc=1
%NoSave
%Mem=1900MB
#P OB98/GEN NMR

erre ene a

0 1
  C     -221.708    -262.949     547.053
  O     -220.460    -263.456     546.619
  H     -221.654    -262.759     548.129
  H     -222.509    -263.668     546.865
  H     -221.930    -262.007     546.543
  P     -220.364    -264.053     545.130
  C     -219.840    -261.714     544.163
  O     -220.730    -262.830     544.152
  C     -219.415    -261.341     542.740
  O     -218.650    -262.413     542.152
  C     -220.580    -261.114     541.789
  O     -221.334    -259.954     542.067
  C     -219.927    -261.281     540.425
  O     -219.331    -260.085     539.933
  C     -218.828    -262.331     540.723
  N     -219.138    -263.628     540.137
  C     -218.046    -264.390     539.732
  O     -216.876    -264.005     539.823
  N     -218.340    -265.602     539.166
  C     -219.594    -266.088     538.933
  O     -219.789    -267.167     538.381
  C     -220.710    -265.228     539.358
  C     -220.435    -264.058     539.935
  O     -221.167    -265.294     544.876
  O     -218.795    -264.243     544.898
  H     -218.967    -260.291     539.051
  H     -218.617    -264.844     544.134
  H     -217.561    -266.168     538.871
  H     -221.715    -265.585     539.185
  H     -221.243    -263.403     540.260
  H     -217.867    -261.997     540.311
  H     -220.650    -261.612     539.678
  H     -221.276    -261.956     541.902
  H     -218.771    -260.454     542.796
  H     -218.954    -261.999     544.742
  H     -220.319    -260.862     544.657
  P     -222.822    -259.724     541.530
  C     -223.877    -261.610     542.975
  O     -223.621    -261.116     541.663
  O     -222.969    -258.933     540.269
  O     -223.461    -258.852     542.728
  H     -224.099    -258.226     542.324
  H     -224.411    -262.535     542.910
  H     -224.463    -260.897     543.517
  H     -222.949    -261.769     543.484

 6  7  8  9  10  11  12  13  14  15  16  26  31  32  33  34  35 0
 6-311+G(2d,p)
 ****
 36  37 0
 6-311+G(2d,p)
 ****
 1  2  3  4  5  17  18  19  20  21  22  23  24  25 0
 3-21G
 ****
 27  28  29  30  38  39  40  41  42  43  44  45 0
 3-21G
 ****


