%nproc=1
%NoSave
%Mem=1900MB
#P OB98/GEN NMR

erre ene a

0 1
  C     -277.084    1002.618    -896.680
  O     -276.773    1003.669    -897.590
  H     -277.905    1002.948    -896.030
  H     -276.225    1002.380    -896.050
  H     -277.396    1001.721    -897.220
  P     -275.489    1003.487    -898.540
  C     -273.004    1003.079    -897.970
  O     -274.214    1003.719    -897.590
  C     -272.022    1003.088    -896.780
  O     -272.670    1002.501    -895.610
  C     -270.781    1002.238    -897.030
  O     -269.878    1002.923    -897.890
  C     -270.296    1002.024    -895.610
  O     -269.584    1003.144    -895.130
  C     -271.629    1001.832    -894.870
  N     -271.987    1000.417    -894.660
  C     -271.624     999.870    -893.430
  O     -271.052    1000.564    -892.570
  N     -271.901     998.557    -893.180
  C     -272.499     997.831    -894.100
  N     -272.727     996.529    -893.800
  C     -272.906     998.378    -895.400
  C     -272.618     999.666    -895.620
  O     -275.481    1004.286    -899.800
  O     -275.459    1001.908    -898.820
  H     -269.539    1003.048    -894.150
  H     -275.976    1001.685    -899.610
  H     -273.402     997.748    -896.140
  H     -272.880    1000.137    -896.560
  H     -271.602    1002.309    -893.880
  H     -269.632    1001.153    -895.550
  H     -271.074    1001.268    -897.460
  H     -271.763    1004.126    -896.550
  H     -272.430     996.190    -892.900
  H     -272.574    1003.650    -898.800
  H     -273.281     995.905    -894.400
  H     -273.196    1002.050    -898.310
  P     -268.777    1002.107    -898.710
  C     -267.011    1000.352    -898.020
  O     -267.796    1001.456    -897.610
  O     -268.092    1002.855    -899.800
  O     -269.592    1000.826    -899.260
  H     -270.186    1001.065    -900.000
  H     -266.409    1000.018    -897.201
  H     -266.378    1000.646    -898.831
  H     -267.652     999.557    -898.339

 6  7  8  9  10  11  12  13  14  15  16  26  30  31  32  33  35 0
 6-311+G(2d,p)
 ****
 37  38 0
 6-311+G(2d,p)
 ****
 1  2  3  4  5  17  18  19  20  21  22  23  24  25 0
 3-21G
 ****
 27  28  29  34  36  39  40  41  42  43  44  45  46 0
 3-21G
 ****


