%nproc=1
%NoSave
%Mem=1900MB
#P OB98/GEN NMR

erre ene a

0 1
  C      149.553    -333.105      67.629
  O      149.021    -332.889      66.341
  H      149.406    -332.200      68.226
  H      150.624    -333.306      67.553
  H      149.058    -333.940      68.134
  P      148.685    -334.156      65.424
  C      148.860    -332.588      63.376
  O      149.211    -333.849      63.936
  C      149.947    -332.065      62.438
  O      151.151    -331.800      63.194
  C      150.324    -333.073      61.350
  O      149.514    -333.007      60.183
  C      151.766    -332.679      61.041
  O      151.826    -331.660      60.027
  C      152.284    -332.134      62.380
  N      156.351    -332.888      65.390
  C      155.932    -331.719      64.774
  N      156.719    -330.639      64.959
  N      154.854    -331.644      64.036
  C      154.226    -332.827      63.861
  C      154.561    -334.051      64.406
  C      155.713    -334.114      65.285
  O      156.111    -335.116      65.867
  N      153.708    -335.046      63.972
  C      152.924    -334.435      63.106
  N      153.148    -333.077      63.064
  O      147.091    -334.076      65.248
  O      149.087    -335.485      65.987
  H      151.416    -332.017      59.213
  H      146.728    -334.976      65.158
  H      157.169    -332.880      65.970
  H      152.154    -334.920      62.516
  H      152.865    -331.214      62.236
  H      152.331    -333.536      60.655
  H      157.601    -330.664      65.444
  H      150.327    -334.091      61.753
  H      156.550    -329.815      64.372
  H      149.624    -331.109      62.008
  H      148.724    -331.907      64.216
  H      147.906    -332.657      62.852
  P      148.848    -334.326      59.575
  C      147.435    -332.955      57.839
  O      148.347    -334.001      58.095
  O      147.488    -334.462      60.404
  O      149.679    -335.567      59.661
  H      147.590    -335.107      61.128
  H      147.232    -332.907      56.789
  H      147.857    -332.027      58.163
  H      146.524    -333.138      58.370

 6  7  8  9  10  11  12  13  14  15  26  29  33  34 0
 6-311+G(2d,p)
 ****
 36  38  39  40  41 0
 6-311+G(2d,p)
 ****
 1  2  3  4  5  16  17  18  19  20  21  22  23  24  25 0
 3-21G
 ****
 27  28  30  31  32  35  37  42  43  44  45  46  47 0
 3-21G
 ****
 48  49 0
 3-21G
 ****


