%nproc=1
%NoSave
%Mem=1900MB
#P OB98/GEN NMR

erre ene a

0 1
  C     -368.699     263.107     222.221
  O     -368.207     263.485     223.490
  P     -367.865     262.388     224.606
  C     -370.118     262.868     225.736
  O     -368.715     262.736     225.924
  C     -370.897     262.368     226.954
  O     -372.311     262.629     226.762
  C     -370.728     260.864     227.224
  O     -370.680     260.696     228.649
  C     -372.003     260.267     226.661
  O     -372.310     259.004     227.226
  C     -373.007     261.386     226.982
  N     -374.211     261.299     226.171
  C     -375.425     261.136     226.851
  O     -375.428     260.942     228.067
  N     -376.594     261.188     226.129
  C     -376.543     261.199     224.833
  N     -377.721     261.318     224.162
  C     -375.279     261.114     224.078
  C     -374.159     261.209     224.796
  O     -366.409     262.171     224.852
  O     -368.560     261.050     224.071
  H     -367.895     260.334     224.048
  H     -373.151     258.677     226.836
  H     -375.289     261.006     223.000
  H     -373.181     261.189     224.330
  H     -373.288     261.356     228.041
  H     -371.903     260.144     225.575
  H     -369.820     260.449     226.778
  H     -370.569     262.948     227.823
  H     -378.564     261.408     224.713
  H     -370.407     262.276     224.859
  H     -377.766     261.652     223.197
  H     -370.370     263.917     225.524
  P     -369.813     259.481     229.246
  C     -371.824     257.911     229.742
  O     -370.746     258.660     230.263
  O     -368.821     260.255     230.245
  O     -369.017     258.679     228.267
  H     -368.012     259.722     230.366
  H     -372.387     257.483     230.576
  H     -371.453     257.097     229.117
  H     -372.497     258.555     229.159
  H     -368.863     263.982     221.627
  H     -369.622     262.578     222.339
  H     -367.985     262.475     221.736

 3  4  5  6  7  8  9  10  11  12  13  24  27  28  29  30  32 0
 6-311+G(2d,p)
 ****
 34  35 0
 6-311+G(2d,p)
 ****
 1  2  14  15  16  17  18  19  20  21  22  23  25  26 0
 3-21G
 ****
 31  33  36  37  38  39  40  41  42  43  44  45  46 0
 3-21G
 ****


