%nproc=1
%NoSave
%Mem=1900MB
#P OB98/GEN NMR

erre ene a

0 1
  C     -680.303     -38.546    -175.176
  O     -681.510     -39.211    -175.513
  P     -682.809     -38.308    -175.773
  C     -684.170     -39.990    -177.210
  O     -684.043     -39.317    -175.950
  C     -685.323     -40.986    -177.180
  O     -684.892     -42.191    -176.491
  C     -686.585     -40.475    -176.481
  O     -687.744     -40.846    -177.257
  C     -686.633     -41.283    -175.187
  O     -687.947     -41.407    -174.676
  C     -685.999     -42.593    -175.659
  N     -687.536     -45.772    -172.040
  C     -688.242     -45.252    -173.114
  N     -689.548     -45.580    -173.197
  N     -687.701     -44.475    -174.010
  C     -686.382     -44.253    -173.824
  C     -685.577     -44.727    -172.807
  C     -686.199     -45.537    -171.783
  O     -685.652     -45.948    -170.759
  N     -684.273     -44.311    -172.971
  C     -684.285     -43.580    -174.071
  N     -685.549     -43.480    -174.600
  O     -682.566     -37.747    -177.259
  O     -683.024     -37.190    -174.806
  H     -688.495     -41.810    -175.372
  H     -682.605     -36.758    -177.251
  H     -688.001     -46.358    -171.361
  H     -683.434     -43.085    -174.512
  H     -686.702     -43.154    -176.284
  H     -686.012     -40.784    -174.437
  H     -690.023     -46.196    -172.546
  H     -686.598     -39.392    -176.294
  H     -690.079     -45.224    -173.984
  H     -685.549     -41.282    -178.216
  H     -683.235     -40.513    -177.425
  H     -684.335     -39.233    -177.988
  P     -688.813     -39.674    -177.528
  C     -689.714     -41.236    -179.408
  O     -690.011     -40.357    -178.340
  O     -688.073     -38.750    -178.628
  O     -689.199     -38.898    -176.302
  H     -688.430     -37.841    -178.592
  H     -688.632     -41.470    -179.466
  H     -690.009     -40.764    -180.350
  H     -690.277     -42.158    -179.281
  H     -679.526     -39.268    -175.032
  H     -680.443     -37.988    -174.274
  H     -680.029     -37.881    -175.968

 3  4  5  6  7  8  9  10  11  12  23  26  30  31  33  0
 6-311+G(2d,p)
 ****
 35  36  37  38 0
 6-311+G(2d,p)
 ****
 1  2  13  14  15  16  17  18  19  20  21  22  24  25  27  28  29 0
 3-21G
 ****
 32  34  39  40  41  42  43  44  45  46  47  48  49 0
 3-21G
 ****


