%nproc=1
%NoSave
%Mem=1900MB
#P OB98/GEN NMR

erre ene a

0 1
  C      127.087     292.007    -464.259
  O      128.462     291.883    -463.960
  H      126.937     292.912    -464.856
  H      126.508     292.097    -463.334
  H      126.732     291.147    -464.836
  P      128.975     290.579    -463.176
  C      128.384     291.745    -460.960
  O      128.230     290.575    -461.753
  C      128.664     291.374    -459.505
  O      127.526     290.644    -458.983
  C      129.913     290.501    -459.316
  O      130.573     290.900    -458.109
  C      129.339     289.103    -459.146
  O      130.209     288.253    -458.392
  C      128.004     289.395    -458.449
  N      124.641     286.346    -456.213
  C      125.395     287.379    -455.691
  N      125.254     287.626    -454.364
  N      126.221     288.106    -456.402
  C      126.256     287.760    -457.705
  C      125.563     286.755    -458.353
  C      124.658     285.950    -457.552
  O      123.975     285.012    -457.958
  N      125.890     286.702    -459.684
  C      126.777     287.660    -459.849
  N      127.044     288.330    -458.680
  O      130.460     290.418    -463.099
  O      128.282     289.362    -463.957
  H      131.032     288.140    -458.917
  H      128.917     288.941    -464.567
  H      124.028     285.808    -455.622
  H      127.267     287.912    -460.790
  H      128.121     289.490    -457.361
  H      129.183     288.647    -460.127
  H      124.625     287.120    -453.764
  H      130.606     290.563    -460.161
  H      125.779     288.392    -453.968
  H      128.741     292.297    -458.916
  H      127.459     292.326    -461.024
  H      129.205     292.350    -461.359
  P      131.614     292.119    -458.170
  C      133.710     290.627    -458.080
  O      132.978     291.591    -458.827
  O      131.774     292.891    -456.898
  O      130.998     293.052    -459.329
  H      131.229     293.979    -459.145
  H      134.594     290.355    -458.618
  H      133.104     289.759    -457.927
  H      133.983     291.042    -457.133

 6  7  8  9  10  11  12  13  14  15  26  29  33  34 0
 6-311+G(2d,p)
 ****
 36  38  39  40  41 0
 6-311+G(2d,p)
 ****
 1  2  3  4  5  16  17  18  19  20  21  22  23  24  25 0
 3-21G
 ****
 27  28  30  31  32  35  37  42  43  44  45  46  47 0
 3-21G
 ****
 48  49 0
 3-21G
 ****


