%nproc=1
%NoSave
%Mem=1900MB
#P OB98/GEN NMR

erre ene a

0 1
  C     -122.072    -189.703    -196.381
  O     -122.519    -191.030    -196.555
  H     -121.528    -189.398    -197.281
  H     -121.394    -189.640    -195.527
  H     -122.914    -189.022    -196.238
  P     -123.491    -191.666    -195.450
  C     -125.671    -190.960    -196.630
  O     -124.848    -190.816    -195.477
  C     -126.869    -191.848    -196.305
  O     -126.420    -193.187    -195.990
  C     -127.663    -191.390    -195.088
  O     -128.469    -190.269    -195.387
  C     -128.424    -192.660    -194.750
  O     -129.589    -192.801    -195.571
  C     -127.388    -193.758    -195.083
  N     -126.739    -194.282    -193.880
  C     -127.374    -195.349    -193.254
  O     -128.417    -195.856    -193.666
  N     -126.800    -195.785    -192.089
  C     -125.766    -195.177    -191.440
  O     -125.445    -195.446    -190.287
  C     -125.096    -194.095    -192.176
  C     -125.614    -193.693    -193.340
  O     -122.890    -191.862    -194.098
  O     -123.933    -193.062    -196.100
  H     -123.423    -193.784    -195.687
  H     -130.239    -192.153    -195.227
  H     -127.282    -196.532    -191.608
  H     -124.227    -193.635    -191.725
  H     -125.157    -192.873    -193.886
  H     -127.867    -194.590    -195.611
  H     -128.748    -192.668    -193.708
  H     -126.978    -191.158    -194.265
  H     -127.510    -191.903    -197.194
  H     -125.079    -191.423    -197.426
  H     -125.999    -189.969    -196.958
  P     -128.918    -189.265    -194.222
  C     -127.177    -187.470    -194.813
  O     -127.653    -188.367    -193.815
  O     -129.630    -189.899    -193.073
  O     -129.873    -188.212    -194.965
  H     -130.706    -188.130    -194.458
  H     -126.337    -186.927    -194.433
  H     -127.955    -186.785    -195.077
  H     -126.881    -188.024    -195.679

 6  7  8  9  10  11  12  13  14  15  16  27  31  32  33  34  35 0
 6-311+G(2d,p)
 ****
 36  37 0
 6-311+G(2d,p)
 ****
 1  2  3  4  5  17  18  19  20  21  22  23  24  25 0
 3-21G
 ****
 26  28  29  30  38  39  40  41  42  43  44  45 0
 3-21G
 ****


