%nproc=1
%NoSave
%Mem=1900MB
#P OB98/GEN NMR

erre ene a

0 1
  C      -17.967      15.236     -16.756
  O      -16.894      14.364     -17.030
  H      -17.577      16.256     -16.697
  H      -18.432      14.989     -15.799
  H      -18.709      15.191     -17.557
  P      -17.148      12.778     -16.982
  C      -15.323      12.522     -15.197
  O      -16.700      12.333     -15.497
  C      -15.017      12.190     -13.736
  O      -15.746      13.095     -12.867
  C      -15.397      10.760     -13.334
  O      -14.321      10.170     -12.601
  C      -16.609      10.947     -12.434
  O      -16.787       9.857     -11.536
  C      -16.293      12.304     -11.796
  N      -17.462      12.939     -11.198
  C      -17.546      12.903      -9.803
  O      -16.680      12.325      -9.144
  N      -18.624      13.486      -9.188
  C      -19.566      14.013      -9.905
  N      -20.613      14.566      -9.237
  C      -19.542      14.032     -11.381
  C      -18.469      13.489     -11.956
  O      -16.505      12.010     -18.087
  O      -18.739      12.627     -16.937
  H      -17.540      10.065     -10.940
  H      -18.990      11.714     -17.223
  H      -20.357      14.473     -11.936
  H      -18.362      13.466     -13.035
  H      -15.522      12.200     -11.021
  H      -17.513      11.030     -13.051
  H      -15.627      10.120     -14.183
  H      -13.954      12.384     -13.554
  H      -20.590      14.534      -8.224
  H      -15.056      13.562     -15.414
  H      -21.405      14.997      -9.690
  H      -14.738      11.858     -15.843
  P      -13.490       9.026     -13.363
  C      -14.130       7.100     -11.754
  O      -14.207       7.619     -13.073
  O      -12.130       8.945     -12.525
  O      -13.238       9.328     -14.803
  H      -11.421       9.430     -12.986
  H      -14.648       6.165     -11.708
  H      -14.580       7.791     -11.072
  H      -13.104       6.953     -11.488

 6  7  8  9  10  11  12  13  14  15  16  26  30  31  32  33  35 0
 6-311+G(2d,p)
 ****
 37  38 0
 6-311+G(2d,p)
 ****
 1  2  3  4  5  17  18  19  20  21  22  23  24  25 0
 3-21G
 ****
 27  28  29  34  36  39  40  41  42  43  44  45  46 0
 3-21G
 ****


