%nproc=1
%NoSave
%Mem=1900MB
#P OB98/GEN NMR

erre ene a

0 1
  C     -249.236    -177.800    -159.764
  O     -250.021    -178.783    -159.114
  H     -249.500    -177.786    -160.826
  H     -248.171    -178.030    -159.676
  H     -249.437    -176.813    -159.337
  P     -249.709    -179.104    -157.574
  C     -252.078    -180.138    -157.699
  O     -250.769    -180.226    -157.147
  C     -253.012    -181.112    -156.991
  O     -253.102    -180.790    -155.590
  C     -254.438    -181.068    -157.520
  O     -254.538    -181.736    -158.763
  C     -255.191    -181.709    -156.371
  O     -255.082    -183.137    -156.408
  C     -254.439    -181.129    -155.149
  N     -255.110    -179.974    -154.568
  C     -256.440    -180.165    -154.179
  O     -256.980    -181.261    -154.327
  N     -257.127    -179.099    -153.654
  C     -256.541    -177.953    -153.512
  N     -257.277    -176.940    -152.985
  C     -255.136    -177.712    -153.897
  C     -254.488    -178.753    -154.416
  O     -249.637    -177.934    -156.641
  O     -248.329    -179.913    -157.631
  H     -255.657    -183.468    -155.689
  H     -247.572    -179.300    -157.577
  H     -254.686    -176.741    -153.755
  H     -253.452    -178.662    -154.723
  H     -254.329    -181.892    -154.367
  H     -256.250    -181.456    -156.393
  H     -254.776    -180.029    -157.609
  H     -252.590    -182.121    -157.078
  H     -258.241    -177.147    -152.745
  H     -251.999    -180.393    -158.760
  H     -256.903    -176.035    -152.749
  H     -252.465    -179.115    -157.616
  P     -255.572    -181.228    -159.878
  C     -253.880    -182.257    -161.532
  O     -255.253    -182.112    -161.182
  O     -255.604    -179.753    -160.096
  O     -256.970    -181.829    -159.376
  H     -257.318    -181.327    -158.599
  H     -253.798    -182.862    -162.411
  H     -253.354    -182.725    -160.726
  H     -253.457    -181.293    -161.722

 6  7  8  9  10  11  12  13  14  15  16  26  30  31  32  33  35 0
 6-311+G(2d,p)
 ****
 37  38 0
 6-311+G(2d,p)
 ****
 1  2  3  4  5  17  18  19  20  21  22  23  24  25 0
 3-21G
 ****
 27  28  29  34  36  39  40  41  42  43  44  45  46 0
 3-21G
 ****


