%nproc=1
%NoSave
%Mem=1900MB
#P OB98/GEN NMR

erre ene a

0 1
  C      539.666     181.032     207.299
  O      539.768     180.111     206.233
  H      540.080     180.569     208.199
  H      538.624     181.295     207.487
  H      540.245     181.934     207.078
  P      539.128     180.510     204.819
  C      541.196     180.139     203.314
  O      539.913     179.669     203.704
  C      542.178     178.971     203.142
  O      542.581     178.494     204.460
  C      541.584     177.768     202.387
  O      542.661     177.116     201.699
  C      541.085     176.906     203.535
  O      540.791     175.602     203.109
  C      542.230     177.093     204.533
  N      541.866     176.693     205.884
  C      541.726     175.318     206.112
  O      541.902     174.523     205.186
  N      541.371     174.884     207.363
  C      541.100     175.753     208.292
  N      540.738     175.259     209.506
  C      541.177     177.216     208.078
  C      541.567     177.612     206.866
  O      539.021     181.973     204.542
  O      537.683     179.815     204.842
  H      541.499     175.257     202.518
  H      536.996     180.489     204.993
  H      540.930     177.894     208.877
  H      541.649     178.667     206.615
  H      543.111     176.517     204.229
  H      540.160     177.320     203.946
  H      540.800     178.053     201.679
  H      543.082     179.338     202.647
  H      540.689     174.251     209.599
  H      541.555     180.814     204.101
  H      540.490     175.835     210.297
  H      541.127     180.696     202.374
  P      542.426     176.003     200.569
  C      543.592     177.337     198.686
  O      543.570     176.137     199.456
  O      541.039     175.980     200.011
  O      542.767     174.610     201.283
  H      542.221     173.908     200.882
  H      544.399     177.296     197.985
  H      543.726     178.176     199.337
  H      542.667     177.439     198.159

 6  7  8  9  10  11  12  13  14  15  16  26  30  31  32  33  35 0
 6-311+G(2d,p)
 ****
 37  38 0
 6-311+G(2d,p)
 ****
 1  2  3  4  5  17  18  19  20  21  22  23  24  25 0
 3-21G
 ****
 27  28  29  34  36  39  40  41  42  43  44  45  46 0
 3-21G
 ****


