%nproc=1
%NoSave
%Mem=1900MB
#P OB98/GEN NMR

erre ene a

0 1
  C       71.253     124.407     115.013
  O       70.706     123.359     115.816
  P       69.964     122.107     115.135
  C       67.594     121.430     114.445
  O       68.445     122.513     114.806
  C       66.107     121.810     114.402
  O       65.624     122.161     115.722
  C       65.766     122.977     113.474
  O       64.462     122.698     112.955
  C       65.730     124.154     114.432
  O       65.029     125.272     113.904
  C       65.102     123.499     115.668
  N       65.384     124.242     116.893
  C       64.413     125.147     117.322
  O       63.398     125.336     116.651
  N       64.633     125.858     118.481
  C       65.768     125.741     119.095
  N       65.938     126.488     120.220
  C       66.858     124.862     118.630
  C       66.594     124.144     117.540
  O       70.116     120.815     115.870
  O       70.641     122.009     113.684
  H       65.004     125.973     114.589
  H       70.636     121.077     113.390
  H       67.799     124.819     119.161
  H       67.327     123.462     117.122
  H       64.011     123.425     115.555
  H       66.754     124.480     114.654
  H       66.486     123.114     112.663
  H       65.554     120.914     114.092
  H       65.176     127.098     120.492
  H       67.739     120.620     115.168
  H       66.819     126.561     120.709
  H       67.907     121.046     113.466
  P       64.082     122.955     111.424
  C       63.680     125.014     109.958
  O       63.756     124.516     111.282
  O       63.028     122.048     110.877
  O       65.461     122.792     110.623
  H       65.269     122.654     109.677
  H       63.250     126.020     109.980
  H       63.046     124.370     109.335
  H       64.682     125.067     109.525
  H       71.702     125.144     115.646
  H       70.473     124.859     114.437
  H       71.994     124.003     114.355

 3  4  5  6  7  8  9  10  11  12  13  23  27  28  29  30  32 0
 6-311+G(2d,p)
 ****
 34  35 0
 6-311+G(2d,p)
 ****
 1  2  14  15  16  17  18  19  20  21  22  24  25  26 0
 3-21G
 ****
 31  33  36  37  38  39  40  41  42  43  44  45  46 0
 3-21G
 ****


