%nproc=1
%NoSave
%Mem=1900MB
#P OB98/GEN NMR

erre ene a

0 1
  C      299.841      55.234    -243.993
  O      299.073      56.251    -244.605
  H      299.250      54.317    -243.919
  H      300.721      55.038    -244.611
  H      300.170      55.547    -242.996
  P      297.823      56.815    -243.772
  C      296.043      55.173    -244.718
  O      296.819      55.572    -243.596
  C      294.599      54.893    -244.296
  O      294.590      53.757    -243.389
  C      293.934      56.071    -243.570
  O      292.569      56.152    -243.979
  C      294.014      55.673    -242.106
  O      293.005      56.299    -241.321
  C      293.890      54.155    -242.196
  N      292.779      51.488    -237.981
  C      292.014      51.922    -239.005
  N      292.389      52.621    -240.095
  C      293.719      52.828    -240.091
  C      294.628      52.450    -239.119
  C      294.110      51.754    -238.012
  N      294.877      51.343    -236.945
  N      295.902      52.877    -239.452
  C      295.756      53.499    -240.608
  N      294.456      53.498    -241.029
  O      297.085      57.748    -244.848
  O      298.159      57.559    -242.523
  H      293.189      56.113    -240.376
  H      297.549      58.605    -244.909
  H      290.955      51.677    -238.936
  H      296.554      53.968    -241.170
  H      292.845      53.824    -242.276
  H      294.991      55.961    -241.699
  H      294.429      57.021    -243.767
  H      294.026      54.596    -245.182
  H      296.481      54.265    -245.149
  H      294.413      50.899    -236.169
  H      295.859      51.586    -236.923
  H      296.059      55.972    -245.469
  P      292.192      57.319    -245.017
  C      290.927      58.982    -243.479
  O      292.110      58.710    -244.216
  O      290.668      57.007    -245.393
  O      293.058      57.342    -246.234
  H      290.554      57.014    -246.361
  H      291.015      59.936    -243.002
  H      290.787      58.224    -242.737
  H      290.088      58.992    -244.143

 6  7  8  9  10  11  12  13  14  15  25  28  32  33  34  35 0
 6-311+G(2d,p)
 ****
 36  39  40 0
 6-311+G(2d,p)
 ****
 1  2  3  4  5  16  17  18  19  20  21  22  23  24 0
 3-21G
 ****
 26  27  29  30  31  37  38  41  42  43  44  45  46  47 0
 3-21G
 ****
 48 0
 3-21G
 ****


