%nproc=1
%NoSave
%Mem=1900MB
#P OB98/GEN NMR

erre ene a

0 1
  C      -50.965    -285.185      46.054
  O      -51.005    -286.436      45.366
  P      -49.915    -287.552      45.731
  C      -49.813    -290.126      45.746
  O      -50.467    -288.975      45.229
  C      -50.545    -291.401      45.324
  O      -51.733    -291.616      46.111
  C      -51.016    -291.374      43.880
  O      -49.931    -291.560      42.988
  C      -52.052    -292.488      43.884
  O      -51.426    -293.773      43.738
  C      -52.668    -292.358      45.294
  N      -53.982    -291.735      45.292
  C      -55.028    -292.514      44.788
  O      -54.805    -293.641      44.343
  N      -56.298    -291.991      44.787
  C      -56.501    -290.792      45.242
  N      -57.777    -290.326      45.221
  C      -55.424    -289.933      45.772
  C      -54.201    -290.460      45.759
  O      -49.409    -287.527      47.135
  O      -48.735    -287.251      44.685
  H      -50.932    -293.738      42.894
  H      -47.884    -287.511      45.089
  H      -55.645    -288.945      46.144
  H      -53.348    -289.898      46.126
  H      -52.766    -293.347      45.759
  H      -52.766    -292.382      43.061
  H      -51.507    -290.414      43.671
  H      -49.865    -292.252      45.479
  H      -58.497    -290.930      44.842
  H      -49.770    -290.065      46.836
  H      -58.044    -289.427      45.598
  H      -48.775    -290.133      45.389
  P      -49.330    -290.260      42.267
  C      -47.179    -289.783      40.902
  O      -48.138    -290.737      41.313
  O      -48.570    -289.506      43.459
  O      -50.347    -289.370      41.630
  H      -48.631    -288.542      43.327
  H      -46.293    -290.310      40.541
  H      -46.886    -289.131      41.729
  H      -47.586    -289.179      40.088
  H      -51.754    -284.556      45.697
  H      -50.022    -284.711      45.877
  H      -51.089    -285.351      47.104

 3  4  5  6  7  8  9  10  11  12  13  23  27  28  29  30  32 0
 6-311+G(2d,p)
 ****
 34  35 0
 6-311+G(2d,p)
 ****
 1  2  14  15  16  17  18  19  20  21  22  24  25  26 0
 3-21G
 ****
 31  33  36  37  38  39  40  41  42  43  44  45  46 0
 3-21G
 ****


