%nproc=1
%NoSave
%Mem=1900MB
#P OB98/GEN NMR

erre ene a

0 1
  C     1411.591    1148.905    -212.497
  O     1410.342    1148.345    -212.915
  P     1409.968    1146.914    -212.278
  C     1407.624    1147.924    -211.840
  O     1408.671    1147.129    -211.337
  C     1406.280    1147.552    -211.201
  O     1406.185    1146.097    -211.040
  C     1406.074    1148.162    -209.809
  O     1404.674    1148.447    -209.680
  C     1406.475    1147.022    -208.892
  O     1406.028    1147.200    -207.548
  C     1405.858    1145.850    -209.663
  N     1404.549    1141.212    -207.969
  C     1403.807    1142.294    -208.304
  N     1404.233    1143.503    -208.755
  C     1405.580    1143.524    -208.831
  C     1406.458    1142.485    -208.530
  C     1405.891    1141.277    -208.079
  N     1406.643    1140.178    -207.724
  N     1407.773    1142.905    -208.723
  C     1407.673    1144.180    -209.068
  N     1406.368    1144.562    -209.234
  O     1411.154    1146.650    -211.237
  O     1409.843    1145.832    -213.296
  H     1406.383    1148.038    -207.194
  H     1411.815    1146.058    -211.631
  H     1402.738    1142.186    -208.215
  H     1408.499    1144.851    -209.214
  H     1404.776    1145.816    -209.564
  H     1407.567    1146.948    -208.858
  H     1406.640    1149.089    -209.646
  H     1405.468    1147.866    -211.870
  H     1407.544    1147.807    -212.925
  H     1406.136    1139.362    -207.408
  H     1407.635    1140.216    -207.779
  H     1407.844    1148.992    -211.670
  P     1404.217    1149.947    -209.322
  C     1403.447    1149.803    -211.765
  O     1403.957    1150.644    -210.738
  O     1405.630    1150.594    -208.903
  O     1403.154    1150.064    -208.272
  H     1406.287    1150.417    -209.570
  H     1403.234    1150.422    -212.643
  H     1402.514    1149.323    -211.433
  H     1404.188    1149.049    -212.022
  H     1411.737    1149.849    -212.978
  H     1412.387    1148.241    -212.764
  H     1411.583    1149.043    -211.436

 3  4  5  6  7  8  9  10  11  12  22  25  29  30  31  32 0
 6-311+G(2d,p)
 ****
 33  36  37 0
 6-311+G(2d,p)
 ****
 1  2  13  14  15  16  17  18  19  20  21  23  24  26 0
 3-21G
 ****
 27  28  34  35  38  39  40  41  42  43  44  45  46  47  48 0
 3-21G
 ****


