%nproc=1
%NoSave
%Mem=1900MB
#P OB98/GEN NMR

erre ene a

0 1
  C     -432.335    -896.200     -16.961
  O     -431.152    -896.741     -16.393
  H     -432.954    -897.020     -17.333
  H     -432.076    -895.548     -17.807
  H     -432.896    -895.640     -16.211
  P     -430.109    -895.685     -15.781
  C     -430.389    -896.384     -13.277
  O     -429.558    -896.347     -14.429
  C     -430.113    -897.638     -12.453
  O     -430.796    -898.768     -13.075
  C     -428.621    -898.016     -12.356
  O     -428.431    -898.706     -11.116
  C     -428.489    -898.999     -13.520
  O     -427.282    -899.728     -13.423
  C     -429.800    -899.777     -13.349
  N     -428.730    -903.933     -16.122
  C     -428.214    -903.462     -14.962
  N     -428.554    -902.364     -14.281
  C     -429.567    -901.711     -14.894
  C     -430.196    -902.067     -16.077
  C     -429.739    -903.237     -16.708
  N     -430.256    -903.710     -17.893
  N     -431.191    -901.149     -16.400
  C     -431.149    -900.256     -15.430
  N     -430.173    -900.555     -14.512
  O     -431.051    -894.497     -15.267
  O     -429.052    -895.198     -16.719
  H     -426.519    -899.166     -13.681
  H     -431.111    -893.806     -15.937
  H     -427.407    -904.062     -14.542
  H     -431.783    -899.390     -15.352
  H     -429.751    -900.458     -12.488
  H     -428.466    -898.467     -14.475
  H     -427.957    -897.158     -12.416
  H     -430.558    -897.520     -11.460
  H     -431.431    -896.368     -13.606
  H     -430.198    -895.491     -12.670
  H     -429.862    -904.549     -18.286
  H     -431.000    -903.188     -18.344
  P     -426.920    -899.007     -10.625
  C     -427.172    -897.927      -8.257
  O     -426.903    -899.102      -9.029
  O     -426.194    -897.608     -10.896
  O     -426.208    -900.116     -11.355
  H     -425.230    -897.756     -11.071
  H     -427.121    -898.165      -7.215
  H     -428.150    -897.562      -8.492
  H     -426.446    -897.175      -8.487

 6  7  8  9  10  11  12  13  14  15  25  28  32  33  34  35 0
 6-311+G(2d,p)
 ****
 36  37  40 0
 6-311+G(2d,p)
 ****
 1  2  3  4  5  16  17  18  19  20  21  22  23  24 0
 3-21G
 ****
 26  27  29  30  31  38  39 41  42  43  44  45  46  47  48 0
 3-21G
 ****


