%nproc=1
%NoSave
%Mem=1900MB
#P OB98/GEN NMR

erre ene a

0 1
  C        2.852    -315.031    -107.146
  O        2.333    -314.588    -105.885
  P        0.747    -314.410    -105.745
  C       -0.938    -316.357    -105.362
  O        0.183    -315.633    -104.872
  C       -1.170    -317.612    -104.513
  O        0.039    -318.391    -104.370
  C       -1.644    -317.314    -103.098
  O       -3.047    -317.089    -103.045
  C       -1.305    -318.623    -102.394
  O       -2.324    -319.605    -102.674
  C        0.020    -319.016    -103.061
  N        2.371    -319.315     -98.591
  C        1.199    -319.903     -99.019
  N        0.559    -320.695     -98.127
  N        0.696    -319.733    -100.216
  C        1.448    -318.933    -101.001
  C        2.630    -318.290    -100.694
  C        3.169    -318.478     -99.363
  O        4.199    -317.970     -98.921
  N        3.096    -317.559    -101.753
  C        2.213    -317.770    -102.711
  N        1.185    -318.582    -102.302
  O        0.219    -314.754    -107.220
  O        0.317    -313.046    -105.307
  H       -2.505    -319.552    -103.633
  H       -0.618    -314.282    -107.389
  H        2.713    -319.477     -97.654
  H        2.277    -317.360    -103.714
  H        0.111    -320.099    -103.206
  H       -1.262    -318.509    -101.306
  H        0.914    -320.911     -97.210
  H       -1.075    -316.487    -102.653
  H       -0.286    -321.158     -98.438
  H       -1.925    -318.229    -105.021
  H       -0.783    -316.640    -106.406
  H       -1.813    -315.699    -105.356
  P       -3.557    -315.592    -102.762
  C       -2.240    -313.978    -104.311
  O       -3.380    -314.794    -104.140
  O       -2.405    -315.000    -101.821
  O       -4.898    -315.503    -102.117
  H       -2.783    -314.346    -101.199
  H       -2.203    -313.645    -105.356
  H       -1.325    -314.531    -104.085
  H       -2.305    -313.096    -103.665
  H        3.918    -315.102    -107.088
  H        2.583    -314.330    -107.909
  H        2.443    -315.991    -107.383

 3  4  5  6  7  8  9  10  11  12  23  26  30  31 0
 6-311+G(2d,p)
 ****
 33  35  36  37  38 0
 6-311+G(2d,p)
 ****
 1  2  13  14  15  16  17  18  19  20  21  22  24  25 0
 3-21G
 ****
 27  28  29  32  34  39  40  41  42  43  44  45  46  47  48  49 0
 3-21G
 ****


