%nproc=1
%NoSave
%Mem=1900MB
#P OB98/GEN NMR

erre ene a

0 1
  C      141.519      78.303    -115.848
  O      141.936      77.224    -116.658
  P      142.154      75.741    -116.099
  C      140.566      74.387    -117.648
  O      140.800      74.907    -116.345
  C      139.077      74.152    -117.943
  O      138.342      75.371    -117.706
  C      138.880      73.811    -119.426
  O      139.060      72.485    -119.880
  C      137.543      74.441    -119.802
  O      136.469      73.499    -119.780
  C      137.340      75.511    -118.725
  N      134.665      79.711    -119.692
  C      134.330      78.629    -118.898
  N      133.049      78.583    -118.468
  N      135.169      77.676    -118.580
  C      136.384      77.810    -119.167
  C      136.836      78.843    -119.956
  C      135.912      79.910    -120.264
  O      136.142      80.843    -121.032
  N      138.102      78.606    -120.432
  C      138.403      77.412    -119.962
  N      137.376      76.872    -119.222
  O      142.844      75.615    -114.779
  O      143.138      75.125    -117.220
  H      136.695      72.773    -120.394
  H      143.742      74.503    -116.770
  H      133.951      80.376    -119.964
  H      139.330      76.883    -120.156
  H      136.370      75.378    -118.227
  H      137.578      74.848    -120.820
  H      132.343      79.219    -118.809
  H      139.628      74.387    -119.985
  H      132.724      77.727    -118.030
  H      138.652      73.409    -117.260
  H      141.130      73.452    -117.733
  H      140.975      75.075    -118.395
  P      140.212      71.968    -120.866
  C      140.315      69.712    -119.662
  O      141.056      70.836    -120.111
  O      141.244      73.191    -120.945
  O      139.743      71.597    -122.237
  H      141.773      73.126    -121.761
  H      140.906      69.171    -118.918
  H      140.113      69.047    -120.510
  H      139.367      70.023    -119.209
  H      141.445      79.188    -116.444
  H      142.233      78.458    -115.066
  H      140.564      78.080    -115.420

 3  4  5  6  7  8  9  10  11  12  23  26  30  31 0
 6-311+G(2d,p)
 ****
 33  35  36  37  38 0
 6-311+G(2d,p)
 ****
 1  2  13  14  15  16  17  18  19  20  21  22  24  25 0
 3-21G
 ****
 27  28  29  32  34  39  40  41  42  43  44  45  46  47  48  49 0
 3-21G
 ****


