%nproc=1
%NoSave
%Mem=1900MB
#P OB98/GEN NMR

erre ene a

0 1
  C     -122.738     199.020     -24.117
  O     -123.998     199.626     -24.289
  P     -124.318     201.126     -23.837
  C     -126.122     200.155     -22.233
  O     -125.047     201.072     -22.403
  C     -127.247     200.708     -21.347
  O     -126.679     201.278     -20.149
  C     -127.971     201.854     -22.065
  O     -128.996     201.572     -22.998
  C     -128.355     202.834     -20.962
  O     -129.713     202.683     -20.544
  C     -127.396     202.481     -19.821
  N     -126.475     206.690     -17.149
  C     -127.470     205.746     -16.970
  N     -128.440     206.072     -16.089
  N     -127.512     204.608     -17.620
  C     -126.523     204.471     -18.533
  C     -125.478     205.330     -18.787
  C     -125.420     206.562     -18.044
  O     -124.604     207.463     -18.234
  N     -124.710     204.894     -19.836
  C     -125.306     203.797     -20.246
  N     -126.434     203.522     -19.507
  O     -124.868     202.042     -24.883
  O     -122.847     201.662     -23.450
  H     -129.878     203.329     -19.830
  H     -122.811     202.609     -23.682
  H     -126.541     207.586     -16.684
  H     -124.989     203.185     -21.082
  H     -127.957     202.271     -18.902
  H     -128.255     203.866     -21.313
  H     -128.521     206.996     -15.693
  H     -127.212     202.380     -22.660
  H     -129.270     205.483     -16.062
  H     -127.914     199.912     -21.010
  H     -125.704     199.238     -21.802
  H     -126.534     199.892     -23.210
  P     -129.225     202.296     -24.405
  C     -131.506     203.352     -23.911
  O     -130.131     203.595     -24.166
  O     -130.216     201.317     -25.197
  O     -127.981     202.538     -25.198
  H     -130.133     201.474     -26.159
  H     -132.064     204.281     -24.064
  H     -131.629     203.032     -22.872
  H     -131.892     202.582     -24.579
  H     -122.769     198.020     -24.495
  H     -122.491     199.000     -23.076
  H     -121.997     199.580     -24.649

 3  4  5  6  7  8  9  10  11  12  23  26  30  31 0
 6-311+G(2d,p)
 ****
 33  35  36  37  38 0
 6-311+G(2d,p)
 ****
 1  2  13  14  15  16  17  18  19  20  21  22  24  25 0
 3-21G
 ****
 27  28  29  32  34  39  40  41  42  43  44  45  46  47  48  49 0
 3-21G
 ****


