%nproc=1
%NoSave
%Mem=1900MB
#P OB98/GEN NMR

erre ene a

0 1
  C      283.980     356.033      10.232
  O      283.306     355.636      11.407
  H      285.056     355.904      10.383
  H      283.779     357.087      10.019
  H      283.664     355.415       9.387
  P      281.710     355.810      11.406
  C      279.773     354.920       9.930
  O      281.178     355.074      10.082
  C      279.385     354.984       8.453
  O      279.791     356.243       7.874
  C      280.001     353.887       7.594
  O      279.241     352.691       7.670
  C      279.952     354.526       6.214
  O      278.631     354.412       5.638
  C      280.285     355.992       6.532
  N      283.632     359.768       6.789
  C      282.251     359.795       6.840
  N      281.673     361.010       6.950
  N      281.503     358.726       6.778
  C      282.211     357.585       6.612
  C      283.577     357.429       6.540
  C      284.397     358.614       6.667
  O      285.623     358.650       6.711
  N      283.918     356.106       6.386
  C      282.761     355.474       6.329
  N      281.694     356.331       6.454
  O      281.507     357.363      11.068
  O      281.022     355.441      12.676
  H      278.463     353.480       5.415
  H      280.751     357.699      11.586
  H      284.157     360.618       6.872
  H      282.642     354.408       6.208
  H      279.765     356.681       5.859
  H      280.634     354.035       5.517
  H      282.163     361.861       6.717
  H      281.048     353.706       7.873
  H      280.661     361.032       6.914
  H      278.288     354.943       8.399
  H      279.270     355.727      10.474
  H      279.465     353.958      10.349
  P      279.964     351.304       7.328
  C      282.227     350.206       7.969
  O      281.488     351.410       7.820
  O      280.084     351.353       5.732
  O      279.227     350.089       7.770
  H      279.427     350.748       5.331
  H      283.218     350.435       8.300
  H      282.274     349.697       7.029
  H      281.746     349.579       8.690

 6  7  8  9  10  11  12  13  14  15  26  29  33  34 0
 6-311+G(2d,p)
 ****
 36  38  39  40  41 0
 6-311+G(2d,p)
 ****
 1  2  3  4  5  16  17  18  19  20  21  22  23  24  25 0
 3-21G
 ****
 27  28  30  31  32  35  37  42  43  44  45  46  47 0
 3-21G
 ****
 48  49 0
 3-21G
 ****


