%nproc=1
%NoSave
%Mem=1900MB
#P OB98/GEN NMR

erre ene a

0 1
  C      181.931     -14.347    -235.157
  O      182.986     -13.706    -234.469
  H      182.212     -15.379    -235.381
  H      181.046     -14.356    -234.514
  H      181.689     -13.816    -236.081
  P      184.284     -13.310    -235.324
  C      184.830     -15.848    -235.266
  O      184.781     -14.660    -236.042
  C      185.649     -16.920    -235.981
  O      186.984     -16.396    -236.225
  C      185.795     -18.232    -235.195
  O      185.723     -19.324    -236.117
  C      187.205     -18.149    -234.639
  O      187.770     -19.428    -234.374
  C      187.918     -17.381    -235.748
  N      192.829     -18.226    -234.744
  C      191.929     -18.912    -235.478
  N      190.646     -18.585    -235.740
  C      190.343     -17.388    -235.212
  C      191.157     -16.570    -234.447
  C      192.457     -17.044    -234.199
  N      193.361     -16.387    -233.396
  N      190.464     -15.446    -234.040
  C      189.249     -15.597    -234.529
  N      189.128     -16.756    -235.243
  O      185.384     -13.067    -234.183
  O      184.133     -12.125    -236.215
  H      187.813     -19.933    -235.209
  H      185.342     -12.141    -233.881
  H      192.277     -19.849    -235.902
  H      188.421     -14.921    -234.372
  H      188.204     -18.023    -236.589
  H      187.197     -17.576    -233.704
  H      185.043     -18.363    -234.408
  H      185.195     -17.107    -236.961
  H      183.810     -16.219    -235.118
  H      194.230     -16.854    -233.189
  H      193.062     -15.563    -232.896
  H      185.267     -15.623    -234.288
  P      184.364     -20.174    -236.149
  C      185.364     -21.992    -234.574
  O      184.300     -21.081    -234.830
  O      184.624     -21.238    -237.316
  O      183.144     -19.355    -236.414
  H      183.792     -21.447    -237.775
  H      185.172     -22.518    -233.662
  H      186.283     -21.451    -234.487
  H      185.437     -22.691    -235.381

 6  7  8  9  10  11  12  13  14  15  25  28  32  33  34  35 0
 6-311+G(2d,p)
 ****
 36  39  40 0
 6-311+G(2d,p)
 ****
 1  2  3  4  5  16  17  18  19  20  21  22  23  24 0
 3-21G
 ****
 26  27  29  30  31  37  38  41  42  43  44  45  46  47 0
 3-21G
 ****
 48 0
 3-21G
 ****


