%nproc=1
%NoSave
%Mem=1900MB
#P OB98/GEN NMR

erre ene a

0 1
  C      -69.529     687.095    -703.705
  O      -69.130     685.745    -703.554
  P      -68.372     685.264    -702.228
  C      -69.629     683.030    -702.376
  O      -68.361     683.648    -702.242
  C      -69.507     681.512    -702.465
  O      -68.800     681.158    -703.682
  C      -68.734     680.857    -701.294
  O      -69.344     679.583    -701.065
  C      -67.343     680.675    -701.872
  O      -66.583     679.691    -701.167
  C      -67.694     680.304    -703.310
  N      -64.738     678.169    -706.916
  C      -65.740     677.670    -706.154
  N      -66.463     678.298    -705.198
  C      -66.062     679.575    -705.057
  C      -65.044     680.213    -705.743
  C      -64.375     679.477    -706.731
  N      -63.375     679.967    -707.536
  N      -64.896     681.515    -705.279
  C      -65.810     681.645    -704.338
  N      -66.580     680.519    -704.211
  O      -68.864     685.866    -700.957
  O      -66.846     685.632    -702.499
  H      -66.511     679.971    -700.237
  H      -66.592     686.420    -701.951
  H      -65.992     676.636    -706.340
  H      -65.957     682.516    -703.718
  H      -68.013     679.258    -703.408
  H      -66.794     681.617    -701.813
  H      -68.747     681.457    -700.374
  H      -70.517     681.083    -702.547
  H      -70.093     683.400    -703.297
  H      -63.057     679.399    -708.300
  H      -63.267     680.984    -707.603
  H      -70.271     683.313    -701.532
  P      -69.828     679.172    -699.590
  C      -71.965     678.003    -700.345
  O      -70.695     677.834    -699.751
  O      -70.450     680.266    -698.795
  O      -68.471     678.640    -698.890
  H      -68.591     678.630    -697.923
  H      -72.676     678.380    -699.606
  H      -72.315     677.024    -700.715
  H      -71.928     678.702    -701.179
  H      -70.016     687.219    -704.649
  H      -68.668     687.728    -703.662
  H      -70.205     687.357    -702.918

 3  4  5  6  7  8  9  10  11  12  22  25  29  30  31  32 0
 6-311+G(2d,p)
 ****
 33  36  37 0
 6-311+G(2d,p)
 ****
 1  2  13  14  15  16  17  18  19  20  21  23  24  26 0
 3-21G
 ****
 27  28  34  35  38  39  40  41  42  43  44  45  46  47  48 0
 3-21G
 ****


