%nproc=1
%NoSave
%Mem=1900MB
#P OB98/GEN NMR

erre ene a

0 1
  C      228.177    -283.947    -216.922
  O      227.227    -284.809    -217.527
  H      229.081    -283.951    -217.531
  H      228.424    -284.313    -215.922
  H      227.786    -282.929    -216.867
  P      225.751    -284.810    -216.888
  C      226.210    -286.212    -214.709
  O      225.968    -284.944    -215.305
  C      226.768    -286.044    -213.298
  O      225.822    -285.272    -212.506
  C      227.019    -287.364    -212.568
  O      228.201    -287.234    -211.773
  C      225.806    -287.515    -211.665
  O      226.067    -288.362    -210.541
  C      225.487    -286.044    -211.331
  N      224.092    -285.856    -210.951
  C      223.634    -286.601    -209.850
  O      224.386    -287.395    -209.280
  N      222.323    -286.472    -209.463
  C      221.521    -285.715    -210.142
  N      220.234    -285.647    -209.721
  C      221.946    -284.948    -211.337
  C      223.233    -285.056    -211.670
  O      225.214    -286.256    -217.321
  O      224.888    -283.667    -217.324
  H      226.836    -287.986    -210.057
  H      225.879    -286.957    -217.240
  H      221.233    -284.346    -211.880
  H      223.630    -284.520    -212.533
  H      226.128    -285.695    -210.513
  H      224.976    -287.958    -212.231
  H      227.121    -288.212    -213.238
  H      227.687    -285.440    -213.350
  H      219.970    -286.196    -208.905
  H      226.918    -286.787    -215.314
  H      219.508    -285.130    -210.210
  H      225.263    -286.754    -214.681
  P      229.382    -288.301    -211.948
  C      229.021    -289.698    -209.809
  O      228.962    -289.676    -211.228
  O      230.750    -287.812    -211.609
  O      229.289    -288.686    -213.504
  H      230.204    -288.796    -213.848
  H      228.720    -290.662    -209.454
  H      228.365    -288.951    -209.413
  H      230.023    -289.498    -209.491

 6  7  8  9  10  11  12  13  14  15  16  26  30  31  32  33  35 0
 6-311+G(2d,p)
 ****
 37  38 0
 6-311+G(2d,p)
 ****
 1  2  3  4  5  17  18  19  20  21  22  23  24  25 0
 3-21G
 ****
 27  28  29  34  36  39  40  41  42  43  44  45  46 0
 3-21G
 ****


