%nproc=1
%NoSave
%Mem=1900MB
#P OB98/GEN NMR

erre ene a

0 1
  C      159.837     822.110    -939.875
  O      159.043     822.039    -938.695
  P      159.700     822.485    -937.299
  C      159.709     820.073    -936.209
  O      159.326     821.433    -936.158
  C      158.871     819.272    -935.198
  O      159.326     819.577    -933.848
  C      157.380     819.582    -935.243
  O      156.711     818.795    -936.212
  C      156.944     819.289    -933.822
  O      156.816     817.874    -933.610
  C      158.173     819.852    -933.019
  N      158.173     821.289    -932.680
  C      157.158     821.817    -931.883
  O      156.216     821.160    -931.425
  N      157.244     823.159    -931.603
  C      158.319     823.983    -931.883
  O      158.369     825.166    -931.544
  C      159.424     823.337    -932.596
  C      159.292     822.049    -932.981
  O      158.869     823.795    -936.898
  O      161.169     822.758    -937.369
  H      156.601     817.735    -932.668
  H      159.450     824.577    -936.889
  H      156.489     823.568    -931.072
  H      160.294     823.941    -932.805
  H      160.109     821.584    -933.503
  H      158.263     819.310    -932.086
  H      155.969     819.726    -933.605
  H      157.225     820.649    -935.444
  H      159.042     818.205    -935.391
  H      160.774     819.956    -936.003
  H      159.539     819.688    -937.230
  P      156.715     819.256    -937.756
  C      154.960     821.036    -937.142
  O      155.278     819.951    -937.993
  O      157.100     818.200    -938.741
  O      157.711     820.493    -937.783
  H      158.618     820.233    -938.056
  H      154.057     821.515    -937.498
  H      155.777     821.765    -937.138
  H      154.777     820.678    -936.127
  H      159.260     821.781    -940.714
  H      160.696     821.482    -939.765
  H      160.152     823.120    -940.033

 3  4  5  6  7  8  9  10  11  12  13  23  28  29  30  31  32 0
 6-311+G(2d,p)
 ****
 33  34 0
 6-311+G(2d,p)
 ****
 1  2  14  15  16  17  18  19  20  21  22  24  25  26  27 0
 3-21G
 ****
 35  36  37  38  39  40  41  42  43  44  45 0
 3-21G
 ****


