%nproc=1
%NoSave
%Mem=1900MB
#P OB98/GEN NMR

erre ene a

0 1
  C      917.267     608.204     -31.438
  O      916.765     609.358     -30.754
  P      917.742     610.177     -29.782
  C      916.643     610.872     -27.549
  O      916.847     611.201     -28.922
  C      915.519     611.714     -26.954
  O      915.724     613.117     -27.182
  C      914.151     611.415     -27.565
  O      913.651     610.169     -27.065
  C      913.360     612.631     -27.162
  O      912.869     612.513     -25.793
  C      914.418     613.742     -27.229
  N      914.286     614.595     -28.406
  C      913.054     615.271     -28.536
  O      912.159     615.108     -27.694
  N      912.871     616.115     -29.617
  C      913.831     616.255     -30.486
  N      913.596     617.094     -31.526
  C      915.119     615.556     -30.377
  C      915.275     614.737     -29.328
  O      918.948     610.769     -30.434
  O      918.157     609.076     -28.678
  H      912.338     613.321     -25.618
  H      919.051     609.294     -28.352
  H      915.899     615.711     -31.135
  H      916.198     614.190     -29.189
  H      914.360     614.404     -26.338
  H      912.484     612.799     -27.786
  H      914.233     611.373     -28.663
  H      915.495     611.540     -25.877
  H      912.692     617.566     -31.569
  H      917.560     611.037     -26.991
  H      914.292     617.316     -32.227
  H      916.421     609.795     -27.487
  P      913.190     609.077     -28.163
  C      911.015     608.125     -27.132
  O      912.384     607.912     -27.382
  O      914.581     608.357     -28.539
  O      912.512     609.638     -29.378
  H      914.567     608.101     -29.480
  H      910.557     607.160     -26.902
  H      910.499     608.562     -27.989
  H      910.895     608.785     -26.266
  H      916.490     607.780     -32.040
  H      917.598     607.481     -30.722
  H      918.087     608.489     -32.063

 3  4  5  6  7  8  9  10  11  12  13  23  27  28  29  30  32 0
 6-311+G(2d,p)
 ****
 34  35 0
 6-311+G(2d,p)
 ****
 1  2  14  15  16  17  18  19  20  21  22  24  25  26 0
 3-21G
 ****
 31  33  36  37  38  39  40  41  42  43  44  45  46 0
 3-21G
 ****


