%nproc=1
%NoSave
%Mem=1900MB
#P OB98/GEN NMR

erre ene a

0 1
  C      -10.763    -512.441    -117.922
  O      -11.714    -513.456    -118.186
  H      -10.966    -511.591    -118.580
  H       -9.759    -512.814    -118.132
  H      -10.829    -512.105    -116.885
  P      -11.802    -514.666    -117.135
  C      -10.274    -516.644    -116.434
  O      -10.482    -515.566    -117.337
  C       -8.994    -517.394    -116.793
  O       -9.178    -518.034    -118.084
  C       -7.749    -516.500    -116.892
  O       -6.629    -517.206    -116.353
  C       -7.569    -516.307    -118.388
  O       -6.219    -516.009    -118.743
  C       -8.075    -517.640    -118.928
  N       -6.452    -517.621    -123.701
  C       -5.766    -517.856    -122.522
  N       -4.446    -518.118    -122.635
  N       -6.325    -517.832    -121.344
  C       -7.659    -517.591    -121.388
  C       -8.450    -517.336    -122.486
  C       -7.814    -517.341    -123.784
  O       -8.359    -517.115    -124.855
  N       -9.756    -517.108    -122.110
  C       -9.749    -517.222    -120.794
  N       -8.499    -517.525    -120.312
  O      -12.976    -515.580    -117.729
  O      -12.082    -514.266    -115.723
  H       -6.215    -515.755    -119.692
  H      -13.727    -515.594    -117.107
  H       -5.974    -517.638    -124.588
  H      -10.609    -517.092    -120.153
  H       -7.310    -518.421    -118.886
  H       -8.198    -515.479    -118.731
  H       -3.958    -518.200    -123.517
  H       -7.866    -515.555    -116.365
  H       -3.925    -518.330    -121.789
  H       -8.842    -518.197    -116.060
  H      -11.131    -517.324    -116.493
  H      -10.202    -516.251    -115.413
  P       -6.233    -516.894    -114.830
  C       -5.193    -514.930    -113.495
  O       -5.532    -515.443    -114.773
  O       -5.019    -517.906    -114.549
  O       -7.348    -517.100    -113.860
  H       -5.316    -518.622    -113.961
  H       -4.739    -513.968    -113.606
  H       -4.506    -515.595    -113.014
  H       -6.078    -514.840    -112.900

 6  7  8  9  10  11  12  13  14  15  26  29  33  34 0
 6-311+G(2d,p)
 ****
 36  38  39  40  41 0
 6-311+G(2d,p)
 ****
 1  2  3  4  5  16  17  18  19  20  21  22  23  24  25 0
 3-21G
 ****
 27  28  30  31  32  35  37  42  43  44  45  46  47 0
 3-21G
 ****
 48  49 0
 3-21G
 ****


