%nproc=1
%NoSave
%Mem=1900MB
#P OB98/GEN NMR

erre ene a

0 1
  C       19.143     -32.960     103.814
  O       20.507     -32.584     103.884
  P       21.027     -31.406     102.928
  C       22.143     -32.899     101.077
  O       22.302     -31.984     102.145
  C       23.503     -33.232     100.455
  O       23.308     -34.189      99.379
  C       24.245     -32.025      99.866
  O       25.645     -32.238     100.086
  C       23.918     -32.118      98.386
  O       24.855     -31.430      97.573
  C       23.909     -33.638      98.192
  N       23.179     -34.068      96.999
  C       23.852     -34.048      95.782
  O       25.014     -33.671      95.648
  N       23.124     -34.457      94.694
  C       21.806     -34.809      94.692
  O       21.200     -35.149      93.685
  C       21.135     -34.764      95.999
  C       21.842     -34.412      97.073
  O       21.650     -30.393     103.995
  O       19.965     -30.829     102.055
  H       22.073     -30.844     104.745
  H       24.752     -31.749      96.658
  H       23.604     -34.486      93.806
  H       20.084     -35.023      96.037
  H       21.369     -34.371      98.047
  H       24.938     -34.016      98.148
  H       22.927     -31.686      98.205
  H       23.936     -31.080     100.321
  H       24.119     -33.723     101.219
  H       21.502     -32.456     100.311
  H       21.651     -33.805     101.446
  P       26.396     -31.298     101.155
  C       26.557     -29.423      99.336
  O       27.200     -30.186     100.332
  O       27.559     -32.294     101.638
  O       25.542     -30.817     102.281
  H       28.025     -32.716     100.899
  H       27.150     -28.526      99.141
  H       25.556     -29.117      99.651
  H       26.488     -30.006      98.414
  H       18.955     -33.753     104.508
  H       18.915     -33.292     102.823
  H       18.528     -32.119     104.058

 3  4  5  6  7  8  9  10  11  12  13  24  28  29  30  31  32 0
 6-311+G(2d,p)
 ****
 33  34 0
 6-311+G(2d,p)
 ****
 1  2  14  15  16  17  18  19  20  21  22  23  25  26  27 0
 3-21G
 ****
 35  36  37  38  39  40  41  42  43  44  45 0
 3-21G
 ****


