%nproc=1
%NoSave
%Mem=1900MB
#P OB98/GEN NMR

erre ene a

0 1
  C      159.554      33.290    -219.341
  O      158.827      33.173    -218.136
  H      160.129      32.374    -219.494
  H      160.246      34.135    -219.273
  H      158.886      33.431    -220.195
  P      157.636      34.203    -217.848
  C      155.842      32.388    -217.465
  O      156.583      33.458    -216.896
  C      154.628      32.034    -216.597
  O      155.067      31.329    -215.412
  C      153.921      33.309    -216.121
  O      152.528      33.100    -215.903
  C      154.597      33.589    -214.788
  O      153.812      34.412    -213.928
  C      154.820      32.168    -214.269
  N      156.362      32.551    -209.428
  C      155.143      32.881    -209.983
  N      154.217      33.399    -209.144
  N      154.860      32.729    -211.251
  C      155.903      32.271    -211.985
  C      157.166      31.935    -211.552
  C      157.453      32.070    -210.140
  O      158.523      31.811    -209.595
  N      157.962      31.527    -212.594
  C      157.187      31.621    -213.655
  N      155.922      32.055    -213.335
  O      156.850      34.276    -219.243
  O      158.055      35.565    -217.383
  H      153.062      33.874    -213.613
  H      156.373      35.120    -219.322
  H      156.523      32.673    -208.441
  H      157.486      31.383    -214.671
  H      153.919      31.799    -213.765
  H      155.531      34.125    -214.985
  H      154.447      33.695    -208.208
  H      154.051      34.135    -216.820
  H      153.443      33.910    -209.576
  H      153.957      31.357    -217.142
  H      156.517      31.526    -217.533
  H      155.529      32.642    -218.481
  P      151.569      33.086    -217.188
  C      149.461      32.520    -215.731
  O      150.073      33.365    -216.689
  O      151.558      31.545    -217.625
  O      152.027      33.980    -218.292
  H      152.104      31.420    -218.426
  H      148.470      32.869    -215.529
  H      150.034      32.532    -214.827
  H      149.417      31.521    -216.113

 6  7  8  9  10  11  12  13  14  15  26  29  33  34 0
 6-311+G(2d,p)
 ****
 36  38  39  40  41 0
 6-311+G(2d,p)
 ****
 1  2  3  4  5  16  17  18  19  20  21  22  23  24  25 0
 3-21G
 ****
 27  28  30  31  32  35  37  42  43  44  45  46  47 0
 3-21G
 ****
 48  49 0
 3-21G
 ****


