%nproc=1
%NoSave
%Mem=1900MB
#P OB98/GEN NMR

erre ene a

0 1
  C     -199.483     321.499     -38.614
  O     -199.729     322.540     -37.665
  P     -198.740     323.793     -37.593
  C     -196.924     322.567     -36.217
  O     -197.234     323.269     -37.416
  C     -195.630     321.768     -36.396
  O     -194.557     322.600     -36.895
  C     -195.099     321.195     -35.087
  O     -195.848     320.153     -34.496
  C     -193.648     320.904     -35.429
  O     -193.506     319.648     -36.092
  C     -193.313     322.070     -36.388
  N     -192.509     323.112     -35.753
  C     -191.131     323.012     -35.926
  O     -190.592     322.089     -36.534
  N     -190.383     323.998     -35.341
  C     -190.866     325.030     -34.588
  O     -190.148     325.875     -34.069
  C     -192.329     325.070     -34.423
  C     -193.071     324.126     -35.001
  O     -199.142     324.890     -36.667
  O     -198.733     324.323     -39.114
  H     -192.559     319.541     -36.312
  H     -198.752     325.299     -39.088
  H     -189.386     323.952     -35.461
  H     -192.747     325.872     -33.829
  H     -194.149     324.135     -34.890
  H     -192.753     321.699     -37.259
  H     -193.022     320.860     -34.531
  H     -195.091     322.008     -34.346
  H     -195.807     320.980     -37.134
  H     -197.748     321.900     -35.954
  H     -196.838     323.286     -35.395
  P     -196.882     320.387     -33.293
  C     -195.391     320.318     -31.175
  O     -196.109     321.110     -32.095
  O     -197.786     319.253     -32.941
  O     -197.778     321.589     -33.877
  H     -198.686     321.484     -33.545
  H     -194.947     320.971     -30.423
  H     -194.589     319.772     -31.685
  H     -196.060     319.615     -30.675
  H     -200.239     320.747     -38.522
  H     -198.523     321.065     -38.426
  H     -199.503     321.906     -39.603

 3  4  5  6  7  8  9  10  11  12  13  23  28  29  30  31  32 0
 6-311+G(2d,p)
 ****
 33  34 0
 6-311+G(2d,p)
 ****
 1  2  14  15  16  17  18  19  20  21  22  24  25  26  27 0
 3-21G
 ****
 35  36  37  38  39  40  41  42  43  44  45 0
 3-21G
 ****


