%nproc=1
%NoSave
%Mem=1900MB
#P OB98/GEN NMR

erre ene a

0 1
  C     -349.084     172.992    -938.714
  O     -349.660     171.757    -938.340
  H     -349.744     173.494    -939.423
  H     -348.122     172.807    -939.205
  H     -348.942     173.636    -937.844
  P     -349.079     171.039    -937.034
  C     -348.543     168.519    -937.379
  O     -349.545     169.502    -937.108
  C     -349.167     167.128    -937.369
  O     -349.771     166.884    -936.070
  C     -350.251     166.905    -938.436
  O     -350.156     165.563    -938.924
  C     -351.533     167.031    -937.639
  O     -352.631     166.367    -938.267
  C     -351.103     166.401    -936.312
  N     -354.244     164.403    -932.947
  C     -353.316     163.809    -933.771
  N     -353.252     162.459    -933.746
  N     -352.523     164.475    -934.566
  C     -352.679     165.819    -934.475
  C     -353.566     166.536    -933.705
  C     -354.454     165.785    -932.852
  O     -355.305     166.259    -932.105
  N     -353.448     167.879    -933.956
  C     -352.516     167.975    -934.894
  N     -352.017     166.755    -935.242
  O     -349.997     171.644    -935.865
  O     -347.627     171.259    -936.771
  H     -352.723     166.725    -939.173
  H     -349.549     172.412    -935.459
  H     -354.860     163.845    -932.368
  H     -352.186     168.895    -935.348
  H     -351.070     165.304    -936.361
  H     -351.792     168.084    -937.504
  H     -353.821     161.879    -933.145
  H     -350.203     167.622    -939.272
  H     -352.547     162.004    -934.320
  H     -348.360     166.382    -937.496
  H     -347.768     168.574    -936.610
  H     -348.086     168.734    -938.353
  P     -349.165     165.285    -940.162
  C     -350.040     163.555    -941.912
  O     -349.392     163.774    -940.668
  O     -347.719     165.233    -939.460
  O     -349.211     166.323    -941.231
  H     -347.055     165.597    -940.067
  H     -350.110     162.504    -942.097
  H     -349.476     164.018    -942.694
  H     -351.022     163.978    -941.882

 6  7  8  9  10  11  12  13  14  15  26  29  33  34 0
 6-311+G(2d,p)
 ****
 36  38  39  40  41 0
 6-311+G(2d,p)
 ****
 1  2  3  4  5  16  17  18  19  20  21  22  23  24  25 0
 3-21G
 ****
 27  28  30  31  32  35  37  42  43  44  45  46  47 0
 3-21G
 ****
 48  49 0
 3-21G
 ****


