%nproc=1
%NoSave
%Mem=1900MB
#P OB98/GEN NMR

erre ene a

0 1
  C      888.326    -544.082    -720.307
  O      889.300    -544.948    -720.876
  P      888.920    -545.730    -722.234
  C      891.011    -544.764    -723.449
  O      889.602    -544.971    -723.465
  C      891.438    -543.955    -724.686
  O      890.757    -542.684    -724.759
  C      892.933    -543.639    -724.700
  O      893.697    -544.712    -725.209
  C      892.964    -542.461    -725.685
  O      892.909    -542.964    -727.039
  C      891.665    -541.717    -725.356
  N      893.409    -536.985    -724.855
  C      893.338    -537.799    -725.975
  N      893.807    -537.266    -727.134
  N      892.856    -539.016    -725.958
  C      892.433    -539.406    -724.727
  C      892.459    -538.696    -723.556
  C      892.997    -537.361    -723.578
  O      893.091    -536.591    -722.635
  N      891.940    -539.421    -722.512
  C      891.586    -540.584    -723.062
  N      891.874    -540.620    -724.403
  O      887.361    -545.389    -722.407
  O      889.156    -547.218    -722.181
  H      893.694    -543.526    -727.144
  H      886.921    -546.101    -722.889
  H      893.795    -536.053    -724.924
  H      891.114    -541.397    -722.529
  H      891.169    -541.296    -726.241
  H      893.883    -541.873    -725.600
  H      894.128    -536.325    -727.215
  H      893.282    -543.310    -723.718
  H      893.722    -537.843    -727.985
  H      891.195    -544.559    -725.584
  H      891.514    -545.738    -723.445
  H      891.294    -544.257    -722.517
  P      894.532    -545.607    -724.160
  C      892.840    -547.582    -724.456
  O      893.483    -546.673    -723.560
  O      894.784    -544.597    -722.949
  O      895.799    -546.174    -724.678
  H      895.625    -544.782    -722.503
  H      892.309    -548.324    -723.849
  H      893.595    -548.096    -725.060
  H      892.142    -547.046    -725.086
  H      888.720    -543.638    -719.417
  H      887.447    -544.643    -720.067
  H      888.078    -543.314    -721.009

 3  4  5  6  7  8  9  10  11  12  23  26  30  31 0
 6-311+G(2d,p)
 ****
 33  35  36  37  38 0
 6-311+G(2d,p)
 ****
 1  2  13  14  15  16  17  18  19  20  21  22  24  25 0
 3-21G
 ****
 27  28  29  32  34  39  40  41  42  43  44  45  46  47  48  49 0
 3-21G
 ****


