%nproc=1
%NoSave
%Mem=1900MB
#P OB98/GEN NMR

erre ene a

0 1
  C      476.364     101.221    -244.430
  O      476.879     102.409    -243.814
  P      478.392     102.800    -244.199
  C      477.677     105.213    -244.852
  O      478.535     104.399    -244.055
  C      477.680     106.669    -244.369
  O      477.057     106.791    -243.058
  C      479.088     107.276    -244.247
  O      478.976     108.664    -244.600
  C      479.380     107.167    -242.758
  O      480.434     108.040    -242.358
  C      478.005     107.485    -242.201
  N      479.412     108.468    -237.441
  C      479.862     108.993    -238.626
  N      480.797     109.973    -238.541
  N      479.444     108.620    -239.814
  C      478.479     107.654    -239.749
  C      477.929     107.061    -238.629
  C      478.437     107.482    -237.334
  O      478.065     107.044    -236.247
  N      476.953     106.156    -238.973
  C      476.966     106.158    -240.301
  N      477.823     107.094    -240.818
  O      478.440     102.552    -245.783
  O      479.427     102.009    -243.480
  H      480.312     108.872    -242.856
  H      478.864     101.699    -245.979
  H      479.785     108.792    -236.568
  H      476.348     105.535    -240.930
  H      477.773     108.566    -242.242
  H      479.672     106.128    -242.504
  H      481.133     110.350    -237.669
  H      479.849     106.786    -244.867
  H      481.115     110.409    -239.402
  H      477.078     107.264    -245.071
  H      476.649     104.833    -244.801
  H      477.975     105.140    -245.899
  P      480.184     109.324    -245.411
  C      478.735     110.116    -247.417
  O      479.562     110.487    -246.330
  O      480.575     108.181    -246.473
  O      481.372     109.707    -244.584
  H      481.545     108.152    -246.586
  H      478.051     110.938    -247.627
  H      478.159     109.217    -247.196
  H      479.359     109.936    -248.301
  H      475.358     101.058    -244.105
  H      476.969     100.384    -244.151
  H      476.381     101.335    -245.494

 3  4  5  6  7  8  9  10  11  12  23  26  30  31 0
 6-311+G(2d,p)
 ****
 33  35  36  37  38 0
 6-311+G(2d,p)
 ****
 1  2  13  14  15  16  17  18  19  20  21  22  24  25 0
 3-21G
 ****
 27  28  29  32  34  39  40  41  42  43  44  45  46  47  48  49 0
 3-21G
 ****


