%nproc=1
%NoSave
%Mem=1900MB
#P OB98/GEN NMR

erre ene a

0 1
  C      169.930     110.304     -83.530
  O      170.181     109.090     -84.207
  H      169.179     110.127     -82.757
  H      169.543     111.051     -84.230
  H      170.841     110.680     -83.054
  P      171.391     109.023     -85.257
  C      173.864     109.764     -85.241
  O      172.576     109.922     -84.657
  C      174.639     111.076     -85.157
  O      174.022     112.073     -86.002
  C      174.682     111.685     -83.760
  O      175.601     110.995     -82.937
  C      175.066     113.119     -84.089
  O      176.480     113.229     -84.325
  C      174.269     113.362     -85.395
  N      173.016     114.086     -85.177
  C      172.684     115.047     -86.128
  O      173.408     115.324     -87.085
  N      171.495     115.698     -85.930
  C      170.669     115.545     -84.854
  O      169.636     116.195     -84.695
  C      171.086     114.541     -83.865
  C      172.220     113.868     -84.068
  O      171.036     109.317     -86.677
  O      171.955     107.532     -85.087
  H      176.644     112.866     -85.215
  H      171.616     106.970     -85.808
  H      171.245     116.409     -86.599
  H      170.456     114.396     -82.994
  H      172.548     113.126     -83.349
  H      174.875     113.935     -86.108
  H      174.826     113.816     -83.285
  H      173.679     111.683     -83.315
  H      175.656     110.897     -85.535
  H      173.741     109.479     -86.294
  H      174.397     108.965     -84.716
  P      175.417     110.965     -81.348
  C      173.659     109.910     -79.806
  O      173.886     110.572     -81.045
  O      175.899     112.180     -80.629
  O      176.223     109.665     -80.885
  H      177.060     109.929     -80.452
  H      172.616     109.694     -79.703
  H      173.974     110.541     -79.001
  H      174.216     108.997     -79.782

 6  7  8  9  10  11  12  13  14  15  16  26  31  32  33  34  35 0
 6-311+G(2d,p)
 ****
 36  37 0
 6-311+G(2d,p)
 ****
 1  2  3  4  5  17  18  19  20  21  22  23  24  25 0
 3-21G
 ****
 27  28  29  30  38  39  40  41  42  43  44  45 0
 3-21G
 ****


