%nproc=1
%NoSave
%Mem=1900MB
#P OB98/GEN NMR

erre ene a

0 1
  C     -830.136      57.464     161.034
  O     -829.388      58.498     160.389
  P     -830.086      59.739     159.665
  C     -828.695      61.702     160.584
  O     -829.966      61.041     160.596
  C     -827.910      61.473     161.886
  O     -827.536      60.088     162.029
  C     -826.630      62.289     161.992
  O     -826.886      63.628     162.354
  C     -825.866      61.467     163.056
  O     -826.307      61.828     164.380
  C     -826.267      60.031     162.704
  N     -821.457      58.338     162.477
  C     -822.150      58.945     163.452
  N     -823.428      59.388     163.440
  C     -824.006      59.094     162.262
  C     -823.428      58.461     161.162
  C     -822.077      58.081     161.297
  N     -821.363      57.457     160.278
  N     -824.318      58.365     160.125
  C     -825.439      58.894     160.583
  N     -825.292      59.344     161.877
  O     -831.480      59.476     159.191
  O     -829.137      60.082     158.416
  H     -826.059      62.767     164.527
  H     -829.661      60.480     157.694
  H     -821.595      59.127     164.365
  H     -826.355      58.975     160.040
  H     -826.417      59.432     163.609
  H     -824.786      61.653     163.030
  H     -826.077      62.242     161.063
  H     -828.597      61.732     162.721
  H     -828.866      62.781     160.434
  H     -820.404      57.253     160.442
  H     -821.821      57.308     159.388
  H     -828.119      61.318     159.718
  P     -827.671      64.597     161.335
  C     -829.362      65.275     163.149
  O     -829.194      64.726     161.870
  O     -827.520      64.242     159.887
  O     -827.079      66.025     161.676
  H     -827.107      66.595     160.852
  H     -829.162      64.501     163.909
  H     -830.386      65.605     163.263
  H     -828.683      66.118     163.313
  H     -829.463      56.742     161.447
  H     -830.776      56.988     160.320
  H     -830.729      57.888     161.817

 3  4  5  6  7  8  9  10  11  12  22  25  29  30  31  32 0
 6-311+G(2d,p)
 ****
 33  36  37 0
 6-311+G(2d,p)
 ****
 1  2  13  14  15  16  17  18  19  20  21  23  24  26 0
 3-21G
 ****
 27  28  34  35  38  39  40  41  42  43  44  45  46  47  48 0
 3-21G
 ****


