%nproc=1
%NoSave
%Mem=1900MB
#P OB98/GEN NMR

erre ene a

0 1
  C     -443.872     136.007     -83.291
  O     -442.733     135.253     -83.641
  H     -444.244     136.520     -84.183
  H     -443.609     136.762     -82.544
  H     -444.664     135.360     -82.902
  P     -442.111     134.291     -82.516
  C     -441.406     132.715     -84.459
  O     -441.021     133.365     -83.253
  C     -440.193     132.053     -85.116
  O     -439.455     133.064     -85.858
  C     -439.233     131.404     -84.116
  O     -438.729     130.191     -84.688
  C     -438.102     132.410     -83.997
  O     -436.867     131.811     -83.598
  C     -438.086     133.023     -85.406
  N     -437.481     134.357     -85.404
  C     -436.097     134.422     -85.244
  O     -435.440     133.379     -85.109
  N     -435.486     135.643     -85.189
  C     -436.208     136.724     -85.198
  N     -435.552     137.910     -85.109
  C     -437.683     136.707     -85.296
  C     -438.249     135.499     -85.402
  O     -443.304     133.270     -82.198
  O     -441.612     134.978     -81.292
  H     -436.196     132.519     -83.512
  H     -443.281     132.978     -81.267
  H     -438.246     137.627     -85.275
  H     -439.323     135.387     -85.468
  H     -437.524     132.387     -86.103
  H     -438.363     133.171     -83.256
  H     -439.692     131.188     -83.149
  H     -440.550     131.319     -85.849
  H     -434.542     137.880     -85.026
  H     -441.823     133.460     -85.149
  H     -436.011     138.807     -85.059
  H     -442.178     131.970     -84.239
  P     -439.236     128.818     -84.023
  C     -438.662     127.918     -86.391
  O     -438.877     127.619     -85.016
  O     -440.832     128.932     -84.116
  O     -438.776     128.635     -82.613
  H     -441.211     129.083     -83.228
  H     -438.433     127.017     -86.920
  H     -437.846     128.603     -86.484
  H     -439.546     128.359     -86.803

 6  7  8  9  10  11  12  13  14  15  16  26  30  31  32  33  35 0
 6-311+G(2d,p)
 ****
 37  38 0
 6-311+G(2d,p)
 ****
 1  2  3  4  5  17  18  19  20  21  22  23  24  25 0
 3-21G
 ****
 27  28  29  34  36  39  40  41  42  43  44  45  46 0
 3-21G
 ****


