%nproc=1
%NoSave
%Mem=1900MB
#P OB98/GEN NMR

erre ene a

0 1
  C       68.526    -367.077     117.193
  O       68.387    -368.201     118.048
  P       67.217    -369.252     117.731
  C       68.796    -370.865     116.424
  O       67.646    -370.035     116.396
  C       68.421    -372.322     116.128
  O       67.864    -372.383     114.788
  C       69.594    -373.316     116.170
  O       69.061    -374.562     116.627
  C       70.003    -373.433     114.713
  O       70.731    -374.629     114.443
  C       68.643    -373.342     114.033
  N       69.994    -374.710     109.347
  C       70.123    -375.399     110.541
  N       70.628    -376.653     110.466
  N       69.781    -374.907     111.708
  C       69.279    -373.646     111.620
  C       69.146    -372.850     110.513
  C       69.486    -373.419     109.227
  O       69.316    -372.883     108.138
  N       68.683    -371.603     110.841
  C       68.456    -371.664     112.136
  N       68.765    -372.907     112.651
  O       66.012    -368.312     117.251
  O       66.825    -370.152     118.866
  H       71.567    -374.592     114.955
  H       65.418    -368.096     117.989
  H       70.257    -375.154     108.478
  H       68.081    -370.870     112.753
  H       68.104    -374.299     114.032
  H       70.641    -372.584     114.444
  H       70.874    -377.106     109.596
  H       70.409    -372.991     116.821
  H       70.689    -377.192     111.321
  H       67.633    -372.623     116.825
  H       69.242    -370.821     117.426
  H       69.535    -370.501     115.700
  P       70.014    -375.503     117.517
  C       69.073    -374.829     119.840
  O       70.179    -374.808     118.952
  O       71.452    -375.298     116.840
  O       69.633    -376.948     117.527
  H       71.975    -376.122     116.916
  H       69.439    -374.695     120.867
  H       68.526    -375.769     119.781
  H       68.397    -374.003     119.597
  H       69.342    -366.472     117.529
  H       67.624    -366.501     117.211
  H       68.716    -367.410     116.194

 3  4  5  6  7  8  9  10  11  12  23  26  30  31 0
 6-311+G(2d,p)
 ****
 33  35  36  37  38 0
 6-311+G(2d,p)
 ****
 1  2  13  14  15  16  17  18  19  20  21  22  24  25 0
 3-21G
 ****
 27  28  29  32  34  39  40  41  42  43  44  45  46  47  48  49 0
 3-21G
 ****


