%nproc=1
%NoSave
%Mem=1900MB
#P OB98/GEN NMR

erre ene a

0 1
  C     1071.271    -464.453     410.540
  O     1070.544    -463.296     410.154
  H     1071.093    -464.631     411.620
  H     1072.340    -464.288     410.399
  H     1070.924    -465.313     409.983
  P     1070.698    -462.842     408.616
  C     1068.505    -464.009     407.841
  O     1069.204    -462.771     408.015
  C     1067.389    -464.137     408.880
  O     1067.958    -464.448     410.197
  C     1066.532    -462.893     409.065
  O     1065.525    -462.820     408.070
  C     1065.967    -463.106     410.471
  O     1064.856    -464.006     410.444
  C     1067.171    -463.725     411.201
  N     1068.204    -461.591     415.672
  C     1067.300    -462.566     415.328
  N     1066.521    -463.039     416.338
  N     1067.154    -463.062     414.130
  C     1068.004    -462.522     413.240
  C     1068.946    -461.509     413.437
  C     1069.100    -460.993     414.774
  O     1069.936    -460.189     415.137
  N     1069.607    -461.204     412.266
  C     1069.024    -461.977     411.334
  N     1068.009    -462.748     411.880
  O     1071.315    -464.154     407.907
  O     1071.541    -461.641     408.387
  H     1065.180    -464.874     410.215
  H     1071.877    -463.867     407.162
  H     1068.260    -461.267     416.603
  H     1069.285    -461.987     410.289
  H     1066.844    -464.461     411.954
  H     1065.653    -462.155     410.908
  H     1066.336    -462.465     417.159
  H     1067.156    -461.981     409.040
  H     1065.818    -463.749     416.092
  H     1066.754    -464.993     408.604
  H     1069.211    -464.844     407.966
  H     1068.086    -464.051     406.835
  P     1064.782    -461.409     407.866
  C     1066.633    -460.716     406.169
  O     1065.221    -460.849     406.443
  O     1065.522    -460.440     408.901
  O     1063.305    -461.449     408.101
  H     1064.985    -459.626     409.058
  H     1066.770    -460.330     405.180
  H     1067.103    -461.674     406.246
  H     1067.072    -460.045     406.878

 6  7  8  9  10  11  12  13  14  15  26  29  33  34 0
 6-311+G(2d,p)
 ****
 36  38  39  40  41 0
 6-311+G(2d,p)
 ****
 1  2  3  4  5  16  17  18  19  20  21  22  23  24  25 0
 3-21G
 ****
 27  28  30  31  32  35  37  42  43  44  45  46  47 0
 3-21G
 ****
 48  49 0
 3-21G
 ****


