%nproc=1
%NoSave
%Mem=1900MB
#P OB98/GEN NMR

erre ene a

0 1
  C      -16.910     -11.261     -32.549
  O      -17.723     -10.589     -33.496
  P      -17.024      -9.954     -34.792
  C      -16.741      -7.767     -33.364
  O      -16.182      -8.688     -34.281
  C      -15.878      -6.504     -33.284
  O      -14.601      -6.844     -32.676
  C      -15.581      -5.851     -34.641
  O      -15.545      -4.434     -34.430
  C      -14.195      -6.377     -34.972
  O      -13.508      -5.560     -35.906
  C      -13.562      -6.410     -33.576
  N      -12.401      -7.296     -33.484
  C      -11.136      -6.721     -33.561
  O      -10.939      -5.518     -33.720
  N      -10.081      -7.593     -33.473
  C      -10.163      -8.952     -33.388
  O       -9.184      -9.686     -33.331
  C      -11.525      -9.506     -33.361
  C      -12.561      -8.667     -33.400
  O      -18.283      -9.310     -35.538
  O      -16.248     -10.939     -35.599
  H      -18.945      -8.948     -34.923
  H      -12.612      -5.924     -36.024
  H       -9.154      -7.193     -33.488
  H      -11.632     -10.582     -33.309
  H      -13.574      -9.052     -33.382
  H      -13.275      -5.397     -33.271
  H      -14.280      -7.384     -35.397
  H      -16.332      -6.096     -35.397
  H      -16.375      -5.790     -32.617
  H      -16.792      -8.226     -32.373
  H      -17.763      -7.522     -33.674
  P      -16.206      -3.483     -35.549
  C      -13.997      -3.072     -36.892
  O      -15.305      -3.596     -36.867
  O      -15.806      -2.041     -34.967
  O      -17.680      -3.648     -35.723
  H      -14.869      -1.980     -34.721
  H      -13.449      -3.532     -37.719
  H      -13.465      -3.283     -35.961
  H      -14.038      -1.991     -37.055
  H      -17.521     -11.625     -31.749
  H      -16.180     -10.582     -32.160
  H      -16.416     -12.083     -33.023

 3  4  5  6  7  8  9  10  11  12  13  24  28  29  30  31  32 0
 6-311+G(2d,p)
 ****
 33  34 0
 6-311+G(2d,p)
 ****
 1  2  14  15  16  17  18  19  20  21  22  23  25  26  27 0
 3-21G
 ****
 35  36  37  38  39  40  41  42  43  44  45 0
 3-21G
 ****


