%nproc=1
%NoSave
%Mem=1900MB
#P OB98/GEN NMR

erre ene a

0 1
  C      817.615    -802.685    -858.135
  O      817.379    -801.525    -857.351
  H      818.112    -802.378    -859.057
  H      816.674    -803.171    -858.388
  H      818.262    -803.380    -857.595
  P      816.611    -801.750    -855.958
  C      817.411    -803.566    -854.306
  O      817.735    -802.351    -854.975
  C      818.479    -803.903    -853.268
  O      819.760    -804.063    -853.936
  C      818.645    -802.811    -852.199
  O      818.894    -803.425    -850.935
  C      819.902    -802.058    -852.647
  O      820.553    -801.417    -851.572
  C      820.698    -803.187    -853.309
  N      825.487    -801.526    -854.031
  C      824.869    -802.117    -852.967
  N      823.605    -802.548    -852.874
  C      822.945    -802.349    -854.022
  C      823.419    -801.767    -855.187
  C      824.773    -801.320    -855.148
  N      825.394    -800.702    -856.217
  N      822.429    -801.711    -856.148
  C      821.379    -802.257    -855.580
  N      821.628    -802.665    -854.300
  O      815.343    -802.527    -856.034
  O      816.462    -800.243    -855.423
  H      821.366    -800.976    -851.903
  H      817.285    -799.745    -855.552
  H      825.495    -802.262    -852.084
  H      820.416    -802.388    -856.059
  H      821.298    -803.749    -852.587
  H      819.626    -801.301    -853.384
  H      817.778    -802.152    -852.136
  H      818.237    -804.870    -852.806
  H      817.350    -804.391    -855.035
  H      826.360    -800.437    -856.122
  H      824.884    -800.573    -857.089
  H      816.431    -803.445    -853.836
  P      817.777    -803.271    -849.777
  C      815.223    -803.313    -850.167
  O      816.450    -804.032    -850.269
  O      817.558    -801.900    -849.258
  O      818.327    -804.253    -848.648
  H      818.150    -803.846    -847.769
  H      814.421    -803.924    -850.524
  H      815.282    -802.422    -850.756
  H      815.046    -803.053    -849.144

 6  7  8  9  10  11  12  13  14  15  25  28  32  33  34  35 0
 6-311+G(2d,p)
 ****
 36  39  40 0
 6-311+G(2d,p)
 ****
 1  2  3  4  5  16  17  18  19  20  21  22  23  24 0
 3-21G
 ****
 26  27  29  30  31  37  38  41  42  43  44  45  46  47 0
 3-21G
 ****
 48 0
 3-21G
 ****


