%nproc=1
%NoSave
%Mem=1900MB
#P OB98/GEN NMR

erre ene a

0 1
  C     -498.662    -898.640    -897.260
  O     -499.409    -897.710    -896.500
  H     -498.526    -898.230    -898.260
  H     -499.189    -899.590    -897.310
  H     -497.667    -898.790    -896.800
  P     -499.696    -898.110    -894.970
  C     -498.181    -896.530    -893.550
  O     -498.339    -897.790    -894.170
  C     -497.137    -895.680    -894.310
  O     -497.622    -895.420    -895.640
  C     -496.869    -894.320    -893.650
  O     -495.505    -893.950    -893.950
  C     -497.815    -893.430    -894.410
  O     -497.508    -892.040    -894.210
  C     -497.631    -893.990    -895.820
  N     -499.539    -890.220    -898.680
  C     -498.408    -890.290    -897.930
  N     -497.975    -891.340    -897.200
  C     -498.796    -892.390    -897.340
  C     -499.964    -892.470    -898.080
  C     -500.330    -891.290    -898.780
  N     -501.469    -891.200    -899.550
  N     -500.549    -893.700    -897.950
  C     -499.741    -894.380    -897.150
  N     -498.679    -893.620    -896.750
  O     -499.753    -899.710    -895.010
  O     -500.932    -897.510    -894.380
  H     -496.634    -891.840    -894.580
  H     -500.669    -900.000    -895.090
  H     -497.816    -889.400    -897.890
  H     -499.873    -895.400    -896.830
  H     -496.681    -893.680    -896.250
  H     -498.853    -893.560    -894.060
  H     -497.005    -894.310    -892.560
  H     -496.214    -896.280    -894.400
  H     -497.870    -896.680    -892.510
  H     -499.148    -895.990    -893.550
  H     -501.661    -890.320    -900.000
  H     -502.076    -892.000    -899.600
  P     -494.347    -894.250    -892.870
  C     -492.626    -895.900    -893.970
  O     -493.777    -895.710    -893.120
  O     -495.207    -894.420    -891.520
  O     -493.338    -893.150    -892.710
  H     -494.653    -894.180    -890.760
  H     -492.388    -896.942    -894.020
  H     -491.793    -895.363    -893.567
  H     -492.844    -895.536    -894.952

 6  7  8  9  10  11  12  13  14  15  25  28  32  33  34  35 0
 6-311+G(2d,p)
 ****
 36  37  40 0
 6-311+G(2d,p)
 ****
 1  2  3  4  5  16  17  18  19  20  21  22  23  24 0
 3-21G
 ****
 26  27  29  30  31  38  39 41  42  43  44  45  46  47  48 0
 3-21G
 ****


