%nproc=1
%NoSave
%Mem=1900MB
#P OB98/GEN NMR

erre ene a

0 1
  C      369.677    -769.498     250.976
  O      368.783    -768.541     250.447
  H      369.886    -769.270     252.027
  H      369.210    -770.484     250.920
  H      370.608    -769.519     250.402
  P      369.343    -767.046     250.277
  C      368.670    -766.201     252.647
  O      369.729    -766.555     251.756
  C      369.238    -765.670     253.964
  O      370.116    -764.547     253.677
  C      368.156    -765.181     254.935
  O      368.534    -765.532     256.271
  C      368.199    -763.665     254.778
  O      367.720    -762.984     255.926
  C      369.677    -763.433     254.476
  N      370.614    -758.442     255.051
  C      370.547    -759.461     255.941
  N      370.296    -760.765     255.706
  C      370.158    -760.987     254.387
  C      370.198    -760.052     253.360
  C      370.426    -758.718     253.738
  N      370.460    -757.676     252.843
  N      369.972    -760.665     252.141
  C      369.792    -761.943     252.427
  N      369.895    -762.187     253.770
  O      368.013    -766.217     249.940
  O      370.397    -766.861     249.240
  H      368.376    -763.089     256.643
  H      367.787    -766.340     248.999
  H      370.710    -759.185     256.985
  H      369.584    -762.721     251.709
  H      370.289    -763.396     255.391
  H      367.580    -763.371     253.916
  H      367.174    -765.583     254.717
  H      369.852    -766.448     254.420
  H      368.058    -767.094     252.840
  H      370.573    -756.745     253.206
  H      370.264    -757.854     251.871
  H      368.046    -765.434     252.174
  P      367.878    -766.872     256.876
  C      365.737    -765.901     257.978
  O      366.283    -766.677     256.925
  O      368.316    -766.826     258.417
  O      368.348    -768.119     256.210
  H      368.694    -767.687     258.675
  H      364.672    -765.862     257.877
  H      366.136    -764.909     257.934
  H      365.990    -766.346     258.917

 6  7  8  9  10  11  12  13  14  15  25  28  32  33  34  35 0
 6-311+G(2d,p)
 ****
 36  39  40 0
 6-311+G(2d,p)
 ****
 1  2  3  4  5  16  17  18  19  20  21  22  23  24 0
 3-21G
 ****
 26  27  29  30  31  37  38  41  42  43  44  45  46  47 0
 3-21G
 ****
 48 0
 3-21G
 ****


