%nproc=1
%NoSave
%Mem=1900MB
#P OB98/GEN NMR

erre ene a

0 1
  C      -86.306     115.013     172.220
  O      -86.210     116.229     172.931
  H      -85.305     114.717     171.900
  H      -86.934     115.137     171.334
  H      -86.715     114.228     172.861
  P      -87.554     116.921     173.461
  C      -88.150     117.927     171.160
  O      -88.542     117.041     172.202
  C      -89.359     118.290     170.291
  O      -88.971     119.388     169.429
  C      -89.820     117.122     169.408
  O      -91.209     116.835     169.544
  C      -89.299     117.505     168.027
  O      -90.029     116.948     166.953
  C      -89.289     119.035     168.070
  N      -88.339     119.646     167.143
  C      -88.545     119.434     165.784
  O      -89.470     118.785     165.303
  N      -87.627     120.016     164.948
  C      -86.547     120.756     165.328
  O      -85.761     121.254     164.532
  C      -86.366     120.921     166.778
  C      -87.255     120.367     167.606
  O      -87.368     118.186     174.229
  O      -88.248     115.788     174.354
  H      -89.478     117.049     166.147
  H      -88.137     116.005     175.300
  H      -87.775     119.883     163.960
  H      -85.511     121.490     167.116
  H      -87.153     120.471     168.682
  H      -90.279     119.434     167.838
  H      -88.268     117.145     167.934
  H      -89.339     116.186     169.718
  H      -90.166     118.649     170.940
  H      -87.387     117.423     170.559
  H      -87.719     118.836     171.593
  P      -91.812     115.474     170.111
  C      -92.526     114.361     167.838
  O      -91.684     114.349     168.983
  O      -93.129     115.583     170.805
  O      -90.727     115.002     171.207
  H      -91.226     114.531     171.903
  H      -92.284     113.530     167.208
  H      -92.380     115.273     167.297
  H      -93.548     114.289     168.146

 6  7  8  9  10  11  12  13  14  15  16  26  31  32  33  34  35 0
 6-311+G(2d,p)
 ****
 36  37 0
 6-311+G(2d,p)
 ****
 1  2  3  4  5  17  18  19  20  21  22  23  24  25 0
 3-21G
 ****
 27  28  29  30  38  39  40  41  42  43  44  45 0
 3-21G
 ****


