%nproc=1
%NoSave
%Mem=1900MB
#P OB98/GEN NMR

erre ene a

0 1
  C      -14.513     -22.627     -20.441
  O      -15.836     -22.867     -20.901
  P      -16.753     -23.867     -20.039
  C      -16.449     -26.308     -19.205
  O      -16.010     -25.288     -20.095
  C      -15.419     -27.430     -19.126
  O      -14.159     -26.916     -18.650
  C      -15.786     -28.559     -18.176
  O      -16.677     -29.490     -18.767
  C      -14.426     -29.198     -17.948
  O      -14.088     -30.039     -19.067
  C      -13.502     -27.976     -17.907
  N      -11.324     -29.214     -13.450
  C      -11.505     -29.916     -14.588
  N      -12.105     -29.519     -15.730
  C      -12.579     -28.268     -15.608
  C      -12.503     -27.445     -14.496
  C      -11.830     -27.959     -13.377
  N      -11.621     -27.231     -12.228
  N      -13.106     -26.233     -14.749
  C      -13.529     -26.316     -15.992
  N      -13.226     -27.523     -16.557
  O      -18.032     -24.080     -20.977
  O      -17.124     -23.372     -18.684
  H      -13.187     -30.378     -18.904
  H      -18.798     -24.356     -20.438
  H      -11.106     -30.927     -14.586
  H      -14.048     -25.529     -16.523
  H      -12.539     -28.165     -18.394
  H      -14.396     -29.829     -17.055
  H      -16.172     -28.171     -17.225
  H      -15.263     -27.816     -20.142
  H      -17.396     -26.717     -19.569
  H      -10.975     -27.599     -11.547
  H      -11.819     -26.237     -12.252
  H      -16.614     -25.870     -18.215
  P      -17.238     -30.658     -17.819
  C      -15.996     -32.336     -16.272
  O      -15.963     -31.554     -17.450
  O      -18.077     -31.573     -18.828
  O      -18.061     -30.172     -16.674
  H      -18.772     -32.061     -18.348
  H      -15.213     -33.096     -16.334
  H      -16.961     -32.837     -16.157
  H      -15.804     -31.703     -15.402
  H      -14.022     -21.948     -21.106
  H      -13.973     -23.550     -20.411
  H      -14.548     -22.202     -19.460

 3  4  5  6  7  8  9  10  11  12  22  25  29  30  31  32 0
 6-311+G(2d,p)
 ****
 33  36  37 0
 6-311+G(2d,p)
 ****
 1  2  13  14  15  16  17  18  19  20  21  23  24  26 0
 3-21G
 ****
 27  28  34  35  38  39  40  41  42  43  44  45  46  47  48 0
 3-21G
 ****


