%nproc=1
%NoSave
%Mem=1900MB
#P OB98/GEN NMR

erre ene a

0 1
  C     -854.141     417.010    -309.293
  O     -852.778     417.201    -309.688
  P     -852.217     418.698    -309.838
  C     -850.137     418.655    -308.314
  O     -851.481     419.101    -308.466
  C     -850.046     417.537    -307.273
  O     -850.769     416.360    -307.696
  C     -848.626     417.066    -307.026
  O     -847.907     418.010    -306.248
  C     -848.864     415.724    -306.356
  O     -849.135     415.894    -304.948
  C     -850.128     415.221    -307.079
  N     -849.857     414.180    -308.065
  C     -850.604     413.001    -307.927
  O     -851.407     412.873    -306.997
  N     -850.405     411.994    -308.831
  C     -849.541     412.142    -309.789
  N     -849.387     411.110    -310.666
  C     -848.728     413.364    -309.951
  C     -848.926     414.326    -309.050
  O     -853.188     419.703    -310.360
  O     -850.981     418.510    -310.845
  H     -848.348     416.317    -304.562
  H     -850.875     419.329    -311.364
  H     -848.017     413.441    -310.771
  H     -848.364     415.249    -309.106
  H     -850.849     414.815    -306.353
  H     -848.001     415.066    -306.435
  H     -848.117     416.915    -307.987
  H     -850.485     417.914    -306.336
  H     -849.954     410.283    -310.511
  H     -849.513     419.502    -308.011
  H     -848.776     411.150    -311.467
  H     -849.761     418.324    -309.286
  P     -847.140     419.190    -307.033
  C     -847.380     421.078    -305.270
  O     -847.759     420.577    -306.548
  O     -847.693     419.040    -308.528
  O     -845.650     419.092    -306.994
  H     -846.981     419.277    -309.156
  H     -847.620     422.145    -305.230
  H     -846.309     420.950    -305.091
  H     -847.941     420.560    -304.495
  H     -854.354     415.963    -309.240
  H     -854.788     417.470    -310.011
  H     -854.300     417.455    -308.333

 3  4  5  6  7  8  9  10  11  12  13  23  27  28  29  30  32 0
 6-311+G(2d,p)
 ****
 34  35 0
 6-311+G(2d,p)
 ****
 1  2  14  15  16  17  18  19  20  21  22  24  25  26 0
 3-21G
 ****
 31  33  36  37  38  39  40  41  42  43  44  45  46 0
 3-21G
 ****


