%nproc=1
%NoSave
%Mem=1900MB
#P OB98/GEN NMR

erre ene a

0 1
  C      198.175     566.087    -513.869
  O      197.005     565.550    -514.485
  P      196.513     564.042    -514.350
  C      196.256     563.266    -516.848
  O      195.624     563.672    -515.625
  C      195.247     562.749    -517.903
  O      194.576     561.579    -517.374
  C      194.168     563.794    -518.163
  O      194.403     564.842    -519.102
  C      192.909     562.979    -518.477
  O      192.716     562.758    -519.874
  C      193.173     561.647    -517.750
  N      188.464     560.905    -515.917
  C      188.855     561.133    -517.222
  N      187.891     561.235    -518.145
  N      190.101     561.281    -517.578
  C      190.985     561.248    -516.535
  C      190.691     561.049    -515.200
  C      189.309     560.838    -514.819
  O      188.896     560.619    -513.685
  N      191.836     561.109    -514.422
  C      192.802     561.365    -515.278
  N      192.326     561.448    -516.584
  O      195.963     563.658    -513.012
  O      197.874     563.186    -514.582
  H      191.937     562.181    -519.986
  H      197.796     562.374    -514.025
  H      187.478     560.782    -515.700
  H      193.841     561.491    -515.027
  H      192.986     560.789    -518.417
  H      192.012     563.496    -518.117
  H      186.899     561.257    -517.925
  H      193.958     564.293    -517.218
  H      188.163     561.615    -519.068
  H      195.765     562.417    -518.800
  H      196.985     562.488    -516.587
  H      196.835     564.105    -517.273
  P      195.045     566.273    -518.755
  C      192.901     567.664    -518.616
  O      194.074     567.405    -519.350
  O      196.320     566.359    -519.728
  O      195.443     566.466    -517.328
  H      196.919     567.066    -519.423
  H      192.186     568.209    -519.255
  H      193.143     568.290    -517.741
  H      192.423     566.736    -518.278
  H      198.269     567.122    -514.124
  H      199.036     565.555    -514.215
  H      198.096     565.987    -512.807

 3  4  5  6  7  8  9  10  11  12  23  26  30  31 0
 6-311+G(2d,p)
 ****
 33  35  36  37  38 0
 6-311+G(2d,p)
 ****
 1  2  13  14  15  16  17  18  19  20  21  22  24  25 0
 3-21G
 ****
 27  28  29  32  34  39  40  41  42  43  44  45  46  47  48  49 0
 3-21G
 ****


