%nproc=1
%NoSave
%Mem=1900MB
#P OB98/GEN NMR

erre ene a

0 1
  C     -224.034    -198.140      10.477
  O     -222.937    -197.680      11.242
  H     -224.104    -197.539       9.567
  H     -224.962    -198.028      11.045
  H     -223.890    -199.188      10.201
  P     -222.705    -198.403      12.657
  C     -224.169    -196.787      14.059
  O     -224.012    -198.098      13.538
  C     -224.673    -196.840      15.498
  O     -226.048    -197.281      15.543
  C     -223.882    -197.774      16.408
  O     -222.723    -197.133      16.911
  C     -224.909    -198.071      17.492
  O     -224.978    -196.989      18.448
  C     -226.212    -198.165      16.684
  N     -228.438    -202.506      17.983
  C     -228.201    -201.369      18.728
  N     -228.591    -201.398      20.023
  N     -227.623    -200.297      18.254
  C     -227.235    -200.429      16.965
  C     -227.408    -201.503      16.122
  C     -228.099    -202.661      16.645
  O     -228.412    -203.665      16.011
  N     -226.892    -201.244      14.875
  C     -226.378    -200.035      14.978
  N     -226.556    -199.499      16.227
  O     -221.575    -197.505      13.353
  O     -222.288    -199.833      12.586
  H     -225.609    -197.226      19.150
  H     -220.971    -198.089      13.849
  H     -228.915    -203.289      18.391
  H     -225.878    -199.500      14.180
  H     -227.072    -197.799      17.255
  H     -224.649    -198.966      18.060
  H     -228.763    -202.267      20.508
  H     -223.627    -198.706      15.889
  H     -228.349    -200.593      20.584
  H     -224.654    -195.815      15.893
  H     -224.892    -196.244      13.441
  H     -223.206    -196.269      14.024
  P     -221.341    -197.943      16.895
  C     -221.142    -198.421      19.441
  O     -221.348    -198.957      18.139
  O     -220.270    -196.831      17.319
  O     -220.989    -198.549      15.577
  H     -219.756    -196.552      16.541
  H     -221.173    -199.212      20.161
  H     -221.910    -197.709      19.659
  H     -220.187    -197.939      19.481

 6  7  8  9  10  11  12  13  14  15  26  29  33  34 0
 6-311+G(2d,p)
 ****
 36  38  39  40  41 0
 6-311+G(2d,p)
 ****
 1  2  3  4  5  16  17  18  19  20  21  22  23  24  25 0
 3-21G
 ****
 27  28  30  31  32  35  37  42  43  44  45  46  47 0
 3-21G
 ****
 48  49 0
 3-21G
 ****


