%nproc=1
%NoSave
%Mem=1900MB
#P OB98/GEN NMR

erre ene a

0 1
  C     -926.243     131.486    -182.703
  O     -927.007     130.690    -183.593
  P     -928.152     129.758    -182.961
  C     -930.289     131.013    -183.748
  O     -929.419     130.709    -182.665
  C     -931.751     130.808    -183.341
  O     -931.983     129.388    -183.123
  C     -932.164     131.543    -182.057
  O     -933.528     131.945    -182.230
  C     -932.041     130.445    -181.015
  O     -932.721     130.728    -179.799
  C     -932.560     129.260    -181.802
  N     -933.346     126.118    -177.843
  C     -933.914     127.290    -178.183
  N     -933.661     128.068    -179.256
  C     -932.713     127.514    -180.037
  C     -932.035     126.326    -179.808
  C     -932.386     125.610    -178.648
  N     -931.792     124.410    -178.303
  N     -931.118     126.091    -180.815
  C     -931.239     127.114    -181.632
  N     -932.204     127.988    -181.209
  O     -927.596     129.436    -181.499
  O     -928.451     128.513    -183.735
  H     -932.635     129.975    -179.178
  H     -927.788     128.517    -181.239
  H     -934.674     127.666    -177.503
  H     -930.645     127.279    -182.517
  H     -933.658     129.281    -181.914
  H     -930.980     130.312    -180.762
  H     -931.554     132.435    -181.850
  H     -932.393     131.120    -184.175
  H     -930.076     130.344    -184.589
  H     -931.965     124.081    -177.365
  H     -930.948     124.156    -178.793
  H     -930.113     132.040    -184.079
  P     -934.071     133.217    -181.421
  C     -933.988     134.640    -183.556
  O     -933.495     134.480    -182.242
  O     -933.104     133.202    -180.135
  O     -935.522     133.214    -181.098
  H     -932.169     133.143    -180.399
  H     -933.589     135.575    -183.963
  H     -935.081     134.691    -183.554
  H     -933.648     133.817    -184.191
  H     -925.523     132.051    -183.258
  H     -925.738     130.854    -182.003
  H     -926.891     132.154    -182.176

 3  4  5  6  7  8  9  10  11  12  22  25  29  30  31  32 0
 6-311+G(2d,p)
 ****
 33  36  37 0
 6-311+G(2d,p)
 ****
 1  2  13  14  15  16  17  18  19  20  21  23  24  26 0
 3-21G
 ****
 27  28  34  35  38  39  40  41  42  43  44  45  46  47  48 0
 3-21G
 ****


