%nproc=1
%NoSave
%Mem=1900MB
#P OB98/GEN NMR

erre ene a

0 1
  C     1022.856    -203.051     709.036
  O     1022.051    -202.054     708.424
  P     1022.629    -201.348     707.087
  C     1021.537    -202.956     705.366
  O     1021.583    -201.635     705.909
  C     1020.753    -202.949     704.042
  O     1019.348    -202.835     704.268
  C     1021.096    -201.767     703.127
  O     1022.284    -201.998     702.387
  C     1019.891    -201.756     702.181
  O     1020.053    -202.769     701.175
  C     1018.746    -202.115     703.156
  N     1014.628    -199.245     702.469
  C     1014.944    -200.474     701.956
  N     1014.077    -201.013     701.038
  N     1016.042    -201.166     702.236
  C     1016.818    -200.522     703.138
  C     1016.598    -199.300     703.774
  C     1015.411    -198.575     703.405
  O     1015.096    -197.448     703.796
  N     1017.612    -198.999     704.630
  C     1018.439    -200.023     704.560
  N     1018.013    -200.953     703.633
  O     1023.893    -202.263     706.703
  O     1023.028    -199.913     707.269
  H     1020.123    -203.635     701.669
  H     1024.472    -201.781     706.083
  H     1013.775    -198.769     702.200
  H     1019.341    -200.108     705.123
  H     1018.040    -202.797     702.676
  H     1019.755    -200.795     701.685
  H     1013.267    -200.495     700.697
  H     1021.143    -200.815     703.683
  H     1014.334    -201.874     700.572
  H     1020.947    -203.886     703.520
  H     1021.025    -203.619     706.074
  H     1022.555    -203.306     705.189
  P     1023.176    -200.697     702.035
  C     1024.823    -200.823     704.090
  O     1024.622    -200.979     702.675
  O     1022.551    -199.554     702.983
  O     1023.143    -200.300     700.598
  H     1022.683    -198.670     702.621
  H     1025.739    -201.306     704.355
  H     1024.000    -201.286     704.645
  H     1024.842    -199.742     704.321
  H     1022.356    -203.430     709.903
  H     1023.795    -202.625     709.323
  H     1023.023    -203.849     708.343

 3  4  5  6  7  8  9  10  11  12  23  26  30  31 0
 6-311+G(2d,p)
 ****
 33  35  36  37  38 0
 6-311+G(2d,p)
 ****
 1  2  13  14  15  16  17  18  19  20  21  22  24  25 0
 3-21G
 ****
 27  28  29  32  34  39  40  41  42  43  44  45  46  47  48  49 0
 3-21G
 ****


