%nproc=1
%NoSave
%Mem=1900MB
#P OB98/GEN NMR

erre ene a

0 1
  C       18.872      80.036     113.663
  O       19.068      81.451     113.774
  P       20.211      81.928     114.804
  C       22.162      80.633     113.683
  O       21.353      80.796     114.838
  C       23.646      80.746     114.039
  O       24.075      79.701     114.935
  C       24.568      80.669     112.832
  O       24.603      81.918     112.160
  C       25.894      80.291     113.479
  O       26.587      81.459     113.971
  C       25.465      79.390     114.644
  N       28.419      75.744     112.715
  C       28.550      77.125     112.650
  N       29.635      77.587     111.997
  N       27.698      77.957     113.178
  C       26.660      77.344     113.795
  C       26.433      75.994     113.943
  C       27.388      75.080     113.357
  O       27.324      73.859     113.404
  N       25.301      75.749     114.686
  C       24.780      76.953     114.870
  N       25.595      77.961     114.409
  O       19.493      81.798     116.238
  O       20.685      83.320     114.557
  H       26.931      81.967     113.208
  H       19.324      82.686     116.604
  H       29.103      75.150     112.283
  H       23.836      77.155     115.359
  H       26.035      79.601     115.555
  H       26.575      79.817     112.760
  H       30.340      77.006     111.574
  H       24.235      79.867     112.160
  H       29.764      78.601     111.955
  H       23.779      81.706     114.552
  H       21.903      81.394     112.934
  H       21.936      79.657     113.233
  P       23.758      82.072     110.811
  C       21.535      82.930     111.863
  O       22.218      81.882     111.186
  O       24.133      80.741     109.992
  O       24.077      83.298     110.016
  H       24.301      80.966     109.057
  H       20.478      82.903     111.588
  H       21.949      83.909     111.595
  H       21.627      82.772     112.932
  H       18.094      79.838     112.956
  H       18.596      79.638     114.617
  H       19.780      79.575     113.333

 3  4  5  6  7  8  9  10  11  12  23  26  30  31 0
 6-311+G(2d,p)
 ****
 33  35  36  37  38 0
 6-311+G(2d,p)
 ****
 1  2  13  14  15  16  17  18  19  20  21  22  24  25 0
 3-21G
 ****
 27  28  29  32  34  39  40  41  42  43  44  45  46  47  48  49 0
 3-21G
 ****


