%nproc=1
%NoSave
%Mem=1900MB
#P OB98/GEN NMR

erre ene a

0 1
  C     -179.985     -10.742     478.174
  O     -180.897     -10.836     477.096
  H     -179.401      -9.826     478.058
  H     -179.304     -11.599     478.170
  H     -180.529     -10.695     479.122
  P     -181.833     -12.140     477.059
  C     -180.323     -13.042     475.156
  O     -180.897     -13.284     476.435
  C     -178.863     -13.480     475.133
  O     -178.106     -12.747     476.114
  C     -178.644     -14.956     475.439
  O     -178.839     -15.740     474.275
  C     -177.185     -14.952     475.872
  O     -176.337     -14.947     474.707
  C     -177.057     -13.613     476.621
  N     -174.518     -14.216     481.043
  C     -174.129     -14.362     479.760
  N     -174.867     -14.240     478.636
  C     -176.141     -13.923     478.932
  C     -176.684     -13.745     480.197
  C     -175.812     -13.898     481.288
  N     -176.216     -13.751     482.600
  N     -178.027     -13.433     480.115
  C     -178.268     -13.364     478.825
  N     -177.172     -13.686     478.066
  O     -183.171     -11.958     476.420
  O     -181.869     -12.532     478.610
  H     -176.567     -15.737     474.185
  H     -180.991     -12.418     479.014
  H     -173.083     -14.615     479.614
  H     -179.214     -13.064     478.382
  H     -176.096     -13.122     476.407
  H     -176.919     -15.832     476.456
  H     -179.268     -15.293     476.279
  H     -178.449     -13.224     474.148
  H     -180.395     -11.974     474.906
  H     -175.580     -14.067     483.312
  H     -177.203     -13.643     482.780
  H     -180.904     -13.609     474.418
  P     -180.034     -16.803     474.177
  C     -178.255     -18.651     474.355
  O     -179.468     -18.128     474.884
  O     -180.592     -16.984     472.810
  O     -181.117     -16.271     475.224
  H     -181.985     -16.694     475.053
  H     -177.976     -19.528     474.901
  H     -177.482     -17.916     474.442
  H     -178.394     -18.902     473.324

 6  7  8  9  10  11  12  13  14  15  25  28  32  33  34  35 0
 6-311+G(2d,p)
 ****
 36  39  40 0
 6-311+G(2d,p)
 ****
 1  2  3  4  5  16  17  18  19  20  21  22  23  24 0
 3-21G
 ****
 26  27  29  30  31  37  38  41  42  43  44  45  46  47 0
 3-21G
 ****
 48 0
 3-21G
 ****


