%nproc=1
%NoSave
%Mem=1900MB
#P OB98/GEN NMR

erre ene a

0 1
  C     -215.283    -290.309     755.210
  O     -214.440    -291.006     756.103
  P     -213.109    -291.744     755.587
  C     -212.596    -293.454     753.709
  O     -213.596    -292.708     754.394
  C     -212.812    -294.943     753.955
  O     -213.972    -295.398     753.245
  C     -211.661    -295.837     753.503
  O     -210.572    -295.772     754.406
  C     -212.358    -297.186     753.413
  O     -212.468    -297.776     754.719
  C     -213.756    -296.793     752.899
  N     -213.909    -297.010     751.464
  C     -215.022    -297.720     751.046
  O     -215.844    -298.155     751.853
  N     -215.221    -297.938     749.693
  C     -214.362    -297.482     748.842
  N     -214.635    -297.660     747.526
  C     -213.126    -296.769     749.230
  C     -212.964    -296.574     750.545
  O     -212.306    -292.420     756.638
  O     -212.292    -290.610     754.797
  H     -212.980    -298.594     754.623
  H     -211.687    -290.082     755.382
  H     -212.425    -296.425     748.476
  H     -212.108    -296.024     750.906
  H     -214.531    -297.354     753.408
  H     -211.842    -297.899     752.770
  H     -211.325    -295.533     752.502
  H     -212.998    -295.088     755.036
  H     -215.563    -297.998     747.288
  H     -211.617    -293.161     754.096
  H     -214.179    -297.106     746.799
  H     -212.653    -293.225     752.638
  P     -209.107    -295.481     753.801
  C     -207.714    -296.566     751.904
  O     -208.809    -296.713     752.804
  O     -208.138    -295.716     755.052
  O     -208.952    -294.120     753.199
  H     -207.860    -294.861     755.421
  H     -207.491    -297.563     751.495
  H     -206.823    -296.203     752.434
  H     -207.990    -295.897     751.090
  H     -216.108    -289.893     755.750
  H     -215.648    -290.984     754.464
  H     -214.731    -289.522     754.739

 3  4  5  6  7  8  9  10  11  12  13  23  27  28  29  30  32 0
 6-311+G(2d,p)
 ****
 34  35 0
 6-311+G(2d,p)
 ****
 1  2  14  15  16  17  18  19  20  21  22  24  25  26 0
 3-21G
 ****
 31  33  36  37  38  39  40  41  42  43  44  45  46 0
 3-21G
 ****


