%nproc=1
%NoSave
%Mem=1900MB
#P OB98/GEN NMR

erre ene a

0 1
  C      -28.850      -4.317     -28.208
  O      -28.413      -4.960     -29.384
  H      -28.215      -3.446     -28.029
  H      -28.756      -5.001     -27.361
  H      -29.887      -3.983     -28.296
  P      -29.409      -5.966     -30.128
  C      -29.490      -7.256     -32.362
  O      -28.810      -6.278     -31.585
  C      -29.630      -6.822     -33.820
  O      -30.582      -5.740     -33.916
  C      -28.314      -6.305     -34.409
  O      -27.480      -7.312     -34.956
  C      -28.807      -5.351     -35.494
  O      -29.020      -6.040     -36.737
  C      -30.136      -4.833     -34.933
  N      -31.753       0.014     -35.099
  C      -32.018      -1.018     -35.979
  N      -32.778      -0.702     -37.050
  N      -31.563      -2.233     -35.821
  C      -30.738      -2.370     -34.759
  C      -30.385      -1.417     -33.830
  C      -30.953      -0.093     -33.971
  O      -30.763       0.850     -33.211
  N      -29.491      -1.913     -32.911
  C      -29.240      -3.134     -33.338
  N      -30.032      -3.484     -34.407
  O      -30.680      -5.047     -30.468
  O      -29.824      -7.167     -29.334
  H      -29.604      -5.488     -37.292
  H      -31.488      -5.591     -30.455
  H      -32.155       0.921     -35.258
  H      -28.534      -3.821     -32.886
  H      -30.914      -4.813     -35.706
  H      -28.069      -4.570     -35.690
  H      -33.082       0.233     -37.265
  H      -27.762      -5.721     -33.667
  H      -32.838      -1.378     -37.814
  H      -30.033      -7.656     -34.409
  H      -30.476      -7.379     -31.912
  H      -28.975      -8.219     -32.297
  P      -25.889      -7.174     -34.908
  C      -23.934      -8.621     -33.917
  O      -25.285      -8.526     -34.314
  O      -25.654      -6.117     -33.731
  O      -25.241      -6.747     -36.183
  H      -25.502      -5.224     -34.095
  H      -23.739      -9.607     -33.550
  H      -23.738      -7.908     -33.144
  H      -23.301      -8.420     -34.756

 6  7  8  9  10  11  12  13  14  15  26  29  33  34 0
 6-311+G(2d,p)
 ****
 36  38  39  40  41 0
 6-311+G(2d,p)
 ****
 1  2  3  4  5  16  17  18  19  20  21  22  23  24  25 0
 3-21G
 ****
 27  28  30  31  32  35  37  42  43  44  45  46  47 0
 3-21G
 ****
 48  49 0
 3-21G
 ****


