%nproc=1
%NoSave
%Mem=1900MB
#P OB98/GEN NMR

erre ene a

0 1
  C     -228.688    -121.897     -20.036
  O     -227.667    -122.521     -20.786
  H     -229.572    -122.540     -20.048
  H     -228.955    -120.934     -20.481
  H     -228.374    -121.755     -18.998
  P     -226.255    -121.772     -20.926
  C     -225.584    -119.477     -21.921
  O     -226.587    -120.474     -21.817
  C     -226.222    -118.112     -22.167
  O     -227.078    -117.729     -21.071
  C     -225.232    -116.958     -22.300
  O     -224.528    -116.946     -23.529
  C     -226.184    -115.782     -22.169
  O     -226.917    -115.614     -23.395
  C     -227.105    -116.273     -21.027
  N     -226.679    -115.792     -19.713
  C     -227.348    -114.670     -19.211
  O     -228.240    -114.126     -19.861
  N     -226.966    -114.164     -17.990
  C     -225.988    -114.713     -17.341
  N     -225.650    -114.167     -16.141
  C     -225.243    -115.883     -17.843
  C     -225.636    -116.369     -19.018
  O     -225.116    -122.608     -21.411
  O     -226.003    -121.118     -19.488
  H     -227.546    -114.883     -23.250
  H     -225.134    -120.649     -19.517
  H     -224.416    -116.287     -17.276
  H     -225.133    -117.223     -19.456
  H     -228.142    -115.962     -21.199
  H     -225.677    -114.839     -21.963
  H     -224.538    -116.939     -21.452
  H     -226.858    -118.201     -23.058
  H     -226.179    -113.365     -15.823
  H     -224.915    -119.750     -22.745
  H     -224.854    -114.482     -15.605
  H     -225.006    -119.427     -20.997
  P     -223.228    -116.006     -23.613
  C     -222.793    -113.451     -23.285
  O     -223.734    -114.512     -23.345
  O     -222.870    -116.024     -25.171
  O     -222.079    -116.432     -22.755
  H     -222.153    -116.662     -25.353
  H     -223.305    -112.530     -23.100
  H     -222.268    -113.386     -24.215
  H     -222.096    -113.637     -22.495

 6  7  8  9  10  11  12  13  14  15  16  26  30  31  32  33  35 0
 6-311+G(2d,p)
 ****
 37  38 0
 6-311+G(2d,p)
 ****
 1  2  3  4  5  17  18  19  20  21  22  23  24  25 0
 3-21G
 ****
 27  28  29  34  36  39  40  41  42  43  44  45  46 0
 3-21G
 ****


