%nproc=1
%NoSave
%Mem=1900MB
#P OB98/GEN NMR

erre ene a

0 1
  C       64.494    -183.625    -224.322
  O       64.472    -184.478    -225.483
  P       63.381    -185.657    -225.570
  C       61.673    -184.921    -227.401
  O       62.773    -185.749    -227.052
  C       61.194    -185.204    -228.833
  O       62.265    -184.919    -229.784
  C       60.751    -186.654    -229.082
  O       59.697    -186.611    -230.060
  C       61.996    -187.278    -229.690
  O       61.730    -188.474    -230.412
  C       62.485    -186.115    -230.562
  N       63.889    -186.218    -230.966
  C       64.223    -187.178    -231.917
  O       63.437    -187.986    -232.395
  N       65.544    -187.204    -232.296
  C       66.542    -186.418    -231.797
  O       67.708    -186.513    -232.160
  C       66.138    -185.444    -230.778
  C       64.856    -185.388    -230.413
  O       62.156    -185.033    -224.738
  O       63.795    -186.965    -224.973
  H       62.594    -188.861    -230.651
  H       61.805    -185.702    -224.122
  H       65.802    -187.881    -232.994
  H       66.896    -184.794    -230.360
  H       64.530    -184.668    -229.669
  H       61.859    -186.035    -231.450
  H       62.706    -187.522    -228.890
  H       60.407    -187.162    -228.177
  H       60.376    -184.506    -229.062
  H       61.973    -183.870    -227.330
  H       60.859    -185.098    -226.693
  P       58.243    -187.165    -229.638
  C       56.572    -185.344    -228.762
  O       57.203    -185.971    -229.863
  O       58.410    -187.212    -228.040
  O       57.889    -188.487    -230.232
  H       58.822    -186.407    -227.683
  H       57.278    -185.193    -227.936
  H       55.734    -185.957    -228.421
  H       56.192    -184.371    -229.078
  H       65.275    -182.901    -224.426
  H       64.671    -184.217    -223.448
  H       63.553    -183.124    -224.229

 3  4  5  6  7  8  9  10  11  12  13  23  28  29  30  31  32 0
 6-311+G(2d,p)
 ****
 33  34 0
 6-311+G(2d,p)
 ****
 1  2  14  15  16  17  18  19  20  21  22  24  25  26 0
 3-21G
 ****
 27  35  36  37  38  39  40  41  42  43  44  45 0
 3-21G
 ****


