%nproc=1
%NoSave
%Mem=1900MB
#P OB98/GEN NMR

erre ene a

0 1
  C     -896.320     138.832     999.894
  O     -896.140     140.069    1000.587
  P     -897.020     141.380    1000.290
  C     -895.320     142.280     998.556
  O     -896.020     142.528     999.758
  C     -895.010     143.600     997.824
  O     -896.210     144.341     997.552
  C     -894.140     144.585     998.610
  O     -892.780     144.183     998.675
  C     -894.370     145.879     997.814
  O     -893.480     145.957     996.674
  C     -895.830     145.699     997.333
  N     -896.740     146.619     998.006
  C     -896.600     147.965     997.706
  O     -895.700     148.344     996.988
  N     -897.510     148.862     998.253
  C     -898.400     148.451     999.107
  N     -899.280     149.366     999.607
  C     -898.480     147.038     999.565
  C     -897.630     146.197     998.962
  O     -897.900     141.813    1001.431
  O     -897.900     141.007     998.992
  H     -898.720     141.550     998.997
  H     -892.590     145.749     997.005
  H     -899.220     146.741    1000.317
  H     -897.640     145.134     999.244
  H     -895.890     145.868     996.260
  H     -894.190     146.780     998.430
  H     -894.540     144.701     999.627
  H     -894.520     143.357     996.847
  H     -899.180     150.323     999.263
  H     -895.940     141.656     997.903
  H     -900.000     149.141    1000.245
  H     -894.400     141.728     998.783
  P     -892.260     143.654    1000.103
  C     -891.410     146.024    1000.772
  O     -891.090     144.652    1000.597
  O     -891.470     142.300     999.748
  O     -893.340     143.400    1001.113
  H     -891.630     141.620    1000.450
  H     -890.720     146.429    1001.538
  H     -892.440     146.161    1001.117
  H     -891.250     146.540     999.834
  H     -895.621     138.111    1000.264
  H     -896.157     138.982     998.847
  H     -897.317     138.477    1000.052

 3  4  5  6  7  8  9  10  11  12  13  24  27  28  29  30  32 0
 6-311+G(2d,p)
 ****
 34  35 0
 6-311+G(2d,p)
 ****
 1  2  14  15  16  17  18  19  20  21  22  23  25  26 0
 3-21G
 ****
 31  33  36  37  38  39  40  41  42  43  44  45  46 0
 3-21G
 ****


