%nproc=1
%NoSave
%Mem=1900MB
#P OB98/GEN NMR

erre ene a

0 1
  C     -111.909     -73.491     117.375
  O     -112.474     -73.840     116.131
  H     -112.718     -73.338     118.095
  H     -111.347     -72.559     117.274
  H     -111.251     -74.278     117.751
  P     -111.549     -74.555     115.040
  C     -111.778     -72.594     113.377
  O     -110.887     -73.415     114.121
  C     -111.029     -71.528     112.577
  O     -110.662     -70.436     113.449
  C     -109.731     -72.059     111.963
  O     -109.888     -72.670     110.694
  C     -108.890     -70.788     111.859
  O     -109.125     -70.106     110.616
  C     -109.380     -69.941     113.038
  N     -105.463     -67.671     115.412
  C     -105.986     -67.408     114.160
  N     -105.362     -66.448     113.446
  N     -107.014     -68.045     113.663
  C     -107.468     -69.045     114.452
  C     -107.017     -69.411     115.701
  C     -105.928     -68.652     116.275
  O     -105.439     -68.834     117.385
  N     -107.699     -70.503     116.183
  C     -108.495     -70.845     115.192
  N     -108.449     -69.944     114.154
  O     -112.607     -75.231     114.040
  O     -110.597     -75.582     115.574
  H     -108.854     -70.700     109.890
  H     -112.228     -76.046     113.667
  H     -104.689     -67.129     115.754
  H     -109.158     -71.704     115.190
  H     -109.522     -68.893     112.745
  H     -107.823     -71.025     111.890
  H     -104.517     -65.987     113.744
  H     -109.229     -72.744     112.651
  H     -105.593     -66.357     112.455
  H     -111.697     -71.115     111.811
  H     -112.442     -72.121     114.101
  H     -112.397     -73.206     112.714
  P     -108.741     -73.601     110.083
  C     -108.589     -72.051     107.969
  O     -107.933     -72.757     108.997
  O     -109.562     -74.650     109.198
  O     -107.863     -74.278     111.083
  H     -109.683     -75.489     109.682
  H     -107.864     -71.557     107.356
  H     -109.247     -71.325     108.399
  H     -109.155     -72.735     107.371

 6  7  8  9  10  11  12  13  14  15  26  29  33  34 0
 6-311+G(2d,p)
 ****
 36  38  39  40  41 0
 6-311+G(2d,p)
 ****
 1  2  3  4  5  16  17  18  19  20  21  22  23  24  25 0
 3-21G
 ****
 27  28  30  31  32  35  37  42  43  44  45  46  47 0
 3-21G
 ****
 48  49 0
 3-21G
 ****


