%nproc=1
%NoSave
%Mem=1900MB
#P OB98/GEN NMR

erre ene a

0 1
  C      737.657    -709.307    -524.103
  O      736.835    -710.124    -523.290
  H      737.218    -709.260    -525.105
  H      738.660    -709.732    -524.178
  H      737.709    -708.296    -523.689
  P      737.329    -710.358    -521.780
  C      737.056    -709.032    -519.584
  O      736.700    -709.127    -520.958
  C      736.687    -707.658    -519.032
  O      737.597    -706.666    -519.571
  C      735.257    -707.227    -519.395
  O      734.675    -706.526    -518.296
  C      735.466    -706.256    -520.558
  O      734.397    -705.329    -520.679
  C      736.812    -705.638    -520.193
  N      736.558    -702.220    -523.988
  C      735.801    -702.413    -522.879
  N      735.954    -703.326    -521.914
  C      737.033    -704.096    -522.142
  C      737.903    -704.031    -523.223
  C      737.617    -703.031    -524.194
  N      738.366    -702.857    -525.332
  N      738.871    -705.005    -523.123
  C      738.606    -705.639    -522.005
  N      737.503    -705.130    -521.372
  O      738.797    -710.566    -521.601
  O      736.406    -711.591    -521.317
  H      734.312    -704.829    -519.836
  H      735.489    -711.461    -521.608
  H      734.963    -701.721    -522.761
  H      739.174    -706.472    -521.609
  H      736.708    -704.794    -519.500
  H      735.539    -706.817    -521.494
  H      734.628    -708.071    -519.682
  H      736.824    -707.658    -517.945
  H      738.137    -709.179    -519.467
  H      738.117    -702.118    -525.966
  H      739.188    -703.438    -525.490
  H      736.534    -709.827    -519.042
  P      733.836    -707.373    -517.213
  C      734.117    -707.927    -514.710
  O      734.776    -707.621    -515.935
  O      733.125    -708.573    -517.724
  O      732.810    -706.282    -516.662
  H      731.950    -706.712    -516.494
  H      734.845    -708.070    -513.939
  H      733.543    -708.822    -514.828
  H      733.468    -707.119    -514.443

 6  7  8  9  10  11  12  13  14  15  25  28  32  33  34  35 0
 6-311+G(2d,p)
 ****
 36  39  40 0
 6-311+G(2d,p)
 ****
 1  2  3  4  5  16  17  18  19  20  21  22  23  24 0
 3-21G
 ****
 26  27  29  30  31  37  38  41  42  43  44  45  46  47 0
 3-21G
 ****
 48 0
 3-21G
 ****


