%nproc=1
%NoSave
%Mem=1900MB
#P OB98/GEN NMR

erre ene a

0 1
  C      445.331     172.709     -42.188
  O      445.996     173.051     -43.390
  H      445.088     171.641     -42.181
  H      445.991     172.925     -41.341
  H      444.414     173.299     -42.085
  P      445.209     172.772     -44.758
  C      445.939     174.754     -46.288
  O      446.136     173.391     -45.914
  C      446.444     174.964     -47.709
  O      447.884     175.070     -47.717
  C      446.099     173.820     -48.663
  O      444.780     173.907     -49.176
  C      447.132     174.044     -49.760
  O      446.725     175.139     -50.595
  C      448.374     174.433     -48.934
  N      452.445     171.622     -50.269
  C      451.896     172.732     -50.813
  N      450.823     173.432     -50.386
  C      450.322     172.886     -49.267
  C      450.772     171.760     -48.601
  C      451.889     171.113     -49.148
  N      452.432     169.954     -48.616
  N      449.975     171.495     -47.500
  C      449.066     172.447     -47.500
  N      449.208     173.299     -48.568
  O      443.974     173.797     -44.708
  O      444.788     171.361     -44.996
  H      447.401     175.231     -51.293
  H      443.303     173.558     -45.379
  H      452.381     173.109     -51.715
  H      448.276     172.563     -46.764
  H      449.013     175.157     -49.447
  H      447.261     173.169     -50.402
  H      446.283     172.844     -48.196
  H      446.038     175.916     -48.086
  H      446.496     175.399     -45.595
  H      453.136     169.480     -49.159
  H      451.935     169.490     -47.867
  H      444.868     174.992     -46.223
  P      443.901     172.566     -49.212
  C      441.938     173.653     -47.907
  O      442.367     173.011     -49.101
  O      444.200     171.901     -47.781
  O      444.233     171.635     -50.340
  H      444.179     170.924     -47.835
  H      440.897     173.888     -47.983
  H      442.498     174.554     -47.766
  H      442.097     173.000     -47.074

 6  7  8  9  10  11  12  13  14  15  25  28  32  33  34  35 0
 6-311+G(2d,p)
 ****
 36  39  40 0
 6-311+G(2d,p)
 ****
 1  2  3  4  5  16  17  18  19  20  21  22  23  24 0
 3-21G
 ****
 26  27  29  30  31  37  38  41  42  43  44  45  46  47 0
 3-21G
 ****
 48 0
 3-21G
 ****


