%nproc=1
%NoSave
%Mem=1900MB
#P OB98/GEN NMR

erre ene a

0 1
  C       48.523     -59.846    -104.837
  O       47.855     -61.092    -104.897
  H       48.467     -59.443    -103.824
  H       49.573     -59.999    -105.100
  H       48.082     -59.140    -105.546
  P       46.262     -61.066    -104.717
  C       46.309     -61.798    -102.223
  O       46.002     -60.774    -103.158
  C       46.407     -61.220    -100.811
  O       46.554     -62.314     -99.866
  C       47.599     -60.277    -100.618
  O       47.199     -59.193     -99.776
  C       48.622     -61.140     -99.899
  O       49.543     -60.367     -99.140
  C       47.720     -62.044     -99.064
  N       50.523     -64.358     -95.478
  C       49.921     -63.150     -95.513
  N       49.186     -62.610     -96.509
  C       49.059     -63.479     -97.527
  C       49.615     -64.742     -97.636
  C       50.389     -65.179     -96.548
  N       51.037     -66.392     -96.518
  N       49.288     -65.312     -98.851
  C       48.547     -64.408     -99.463
  N       48.386     -63.283     -98.705
  O       45.875     -62.614    -104.879
  O       45.515     -60.199    -105.672
  H       50.107     -60.980     -98.624
  H       45.855     -62.845    -105.827
  H       50.053     -62.533     -94.629
  H       48.116     -64.515    -100.450
  H       47.396     -61.565     -98.130
  H       49.190     -61.726    -100.632
  H       47.984     -59.882    -101.561
  H       45.462     -60.719    -100.571
  H       47.265     -62.255    -102.498
  H       51.618     -66.601     -95.724
  H       50.999     -66.990     -97.332
  H       45.525     -62.563    -102.256
  P       46.949     -57.777    -100.491
  C       49.182     -56.651     -99.814
  O       48.368     -57.136    -100.873
  O       46.417     -56.849     -99.301
  O       45.961     -57.842    -101.612
  H       45.602     -56.391     -99.572
  H       50.091     -56.255    -100.216
  H       49.408     -57.453     -99.142
  H       48.659     -55.881     -99.287

 6  7  8  9  10  11  12  13  14  15  25  28  32  33  34  35 0
 6-311+G(2d,p)
 ****
 36  39  40 0
 6-311+G(2d,p)
 ****
 1  2  3  4  5  16  17  18  19  20  21  22  23  24 0
 3-21G
 ****
 26  27  29  30  31  37  38  41  42  43  44  45  46  47 0
 3-21G
 ****
 48 0
 3-21G
 ****


