%nproc=1
%NoSave
%Mem=1900MB
#P OB98/GEN NMR

erre ene a

0 1
  C       27.104      31.415       4.696
  O       26.265      31.253       3.565
  P       26.551      29.996       2.605
  C       28.118      31.614       1.312
  O       27.930      30.310       1.846
  C       29.594      31.887       1.017
  O       30.379      31.524       2.178
  C       30.143      31.119      -0.186
  O       31.069      31.970      -0.863
  C       30.904      29.969       0.447
  O       31.920      29.469      -0.420
  C       31.417      30.624       1.738
  N       31.741      29.639       2.765
  C       32.917      28.905       2.586
  O       33.583      29.047       1.561
  N       33.281      27.993       3.546
  C       32.484      27.757       4.542
  N       32.889      26.848       5.468
  C       31.175      28.422       4.702
  C       30.882      29.356       3.799
  O       25.450      30.167       1.457
  O       26.466      28.667       3.280
  H       32.464      28.825       0.088
  H       25.164      29.297       1.118
  H       30.532      28.162       5.530
  H       29.955      29.912       3.850
  H       32.314      31.225       1.537
  H       30.214      29.149       0.680
  H       29.360      30.798      -0.879
  H       29.718      32.966       0.866
  H       33.783      26.395       5.328
  H       27.774      32.351       2.043
  H       32.334      26.600       6.275
  H       27.515      31.725       0.405
  P       31.070      31.941      -2.467
  C       32.979      30.226      -2.397
  O       31.671      30.505      -2.854
  O       32.308      32.906      -2.802
  O       29.838      32.376      -3.185
  H       32.379      33.026      -3.766
  H       33.208      29.178      -2.610
  H       33.052      30.391      -1.319
  H       33.701      30.856      -2.924
  H       26.803      32.285       5.242
  H       28.118      31.529       4.374
  H       27.024      30.554       5.326

 3  4  5  6  7  8  9  10  11  12  13  21  23  27  28  29  30  32 0
 6-311+G(2d,p)
 ****
 34  35 0
 6-311+G(2d,p)
 ****
 1  2  14  15  16  17  18  19  20  22  24  25  26 0
 3-21G
 ****
 31  33  36  37  38  39  40  41  42  43  44  45  46 0
 3-21G
 ****


