%nproc=1
%NoSave
%Mem=1900MB
#P OB98/GEN NMR

erre ene a

0 1
  C      101.171     144.458       6.773
  O      101.321     145.571       7.631
  H      101.546     144.727       5.780
  H      100.114     144.186       6.689
  H      101.748     143.608       7.150
  P      100.804     145.386       9.139
  C       98.564     146.672       9.382
  O       99.200     145.440       9.070
  C       98.449     147.542       8.134
  O       97.831     146.808       7.053
  C       97.626     148.811       8.323
  O       98.402     149.845       8.906
  C       97.218     149.119       6.890
  O       98.276     149.786       6.170
  C       96.967     147.716       6.320
  N       92.253     148.609       4.740
  C       93.442     149.218       4.391
  N       93.351     150.258       3.529
  N       94.609     148.853       4.847
  C       94.541     147.823       5.724
  C       93.428     147.124       6.137
  C       92.145     147.521       5.598
  O       91.065     146.980       5.817
  N       93.767     146.133       7.022
  C       95.071     146.255       7.171
  N       95.585     147.277       6.417
  O      101.189     146.775       9.840
  O      101.378     144.222       9.875
  H       98.171     149.618       5.218
  H      101.374     146.615      10.784
  H       91.388     148.925       4.339
  H       95.684     145.632       7.809
  H       97.247     147.646       5.260
  H       96.350     149.781       6.848
  H       92.491     150.779       3.415
  H       96.727     148.605       8.919
  H       94.215     150.724       3.283
  H       99.469     147.793       7.811
  H       99.161     147.200      10.133
  H       97.569     146.472       9.793
  P       97.689     150.794       9.987
  C       97.231     153.244       9.233
  O       96.847     151.877       9.152
  O       98.902     151.654      10.579
  O       96.938     150.072      11.052
  H       98.637     152.067      11.423
  H       96.578     153.835       8.625
  H       98.237     153.353       8.885
  H       97.167     153.573      10.249

 6  7  8  9  10  11  12  13  14  15  26  29  33  34 0
 6-311+G(2d,p)
 ****
 36  38  39  40  41 0
 6-311+G(2d,p)
 ****
 1  2  3  4  5  16  17  18  19  20  21  22  23  24  25 0
 3-21G
 ****
 27  28  30  31  32  35  37  42  43  44  45  46  47 0
 3-21G
 ****
 48  49 0
 3-21G
 ****


