%nproc=1
%NoSave
%Mem=1900MB
#P OB98/GEN NMR

erre ene a

0 1
  C     -147.363      69.931     129.868
  O     -147.164      71.255     130.337
  P     -146.348      71.434     131.708
  C     -146.862      71.082     134.241
  O     -147.349      71.048     132.902
  C     -148.027      71.008     135.225
  O     -148.777      72.240     135.200
  C     -149.042      69.911     134.927
  O     -148.545      68.636     135.305
  C     -150.231      70.400     135.747
  O     -150.041      70.073     137.133
  C     -150.151      71.925     135.547
  N     -155.029      72.393     134.037
  C     -154.476      71.832     135.138
  N     -153.166      71.728     135.457
  C     -152.400      72.285     134.506
  C     -152.821      72.873     133.324
  C     -154.204      72.922     133.100
  N     -154.767      73.493     131.975
  N     -151.740      73.316     132.583
  C     -150.688      73.008     133.314
  N     -151.032      72.399     134.490
  O     -146.203      73.019     131.843
  O     -145.015      70.743     131.742
  H     -150.678      70.608     137.651
  H     -145.357      73.258     132.261
  H     -155.175      71.412     135.855
  H     -149.656      73.210     133.036
  H     -150.399      72.483     136.460
  H     -151.180      69.960     135.430
  H     -149.298      69.909     133.858
  H     -147.609      70.877     136.235
  H     -146.315      72.017     134.408
  H     -155.753      73.350     131.825
  H     -154.150      73.757     131.217
  H     -146.168      70.246     134.388
  P     -148.748      67.430     134.264
  C     -150.880      66.397     133.258
  O     -150.327      67.117     134.345
  O     -148.109      66.198     135.062
  O     -148.206      67.676     132.895
  H     -148.431      66.151     135.977
  H     -151.937      66.208     133.467
  H     -150.366      65.439     133.136
  H     -150.798      66.988     132.341
  H     -147.917      69.956     128.953
  H     -147.908      69.372     130.599
  H     -146.414      69.466     129.698

 3  4  5  6  7  8  9  10  11  12  22  25  29  30  31  32 0
 6-311+G(2d,p)
 ****
 33  36  37 0
 6-311+G(2d,p)
 ****
 1  2  13  14  15  16  17  18  19  20  21  23  24  26 0
 3-21G
 ****
 27  28  34  35  38  39  40  41  42  43  44  45  46  47  48 0
 3-21G
 ****


