%nproc=1
%NoSave
%Mem=1900MB
#P OB98/GEN NMR

erre ene a

0 1
  C     -130.204     246.184    -227.736
  O     -130.026     245.213    -228.750
  H     -129.903     247.157    -228.133
  H     -129.585     245.946    -226.869
  H     -131.257     246.233    -227.446
  P     -130.381     243.697    -228.362
  C     -132.657     244.062    -229.536
  O     -131.985     243.650    -228.354
  C     -133.993     244.719    -229.189
  O     -133.776     245.875    -228.361
  C     -134.785     245.205    -230.397
  O     -135.530     244.135    -230.964
  C     -135.700     246.234    -229.750
  O     -136.819     245.569    -229.130
  C     -134.800     246.858    -228.669
  N     -135.468     251.865    -229.587
  C     -136.351     250.859    -229.406
  N     -136.104     249.547    -229.227
  C     -134.784     249.303    -229.224
  C     -133.764     250.227    -229.394
  C     -134.145     251.565    -229.580
  N     -133.241     252.590    -229.766
  N     -132.531     249.613    -229.340
  C     -132.800     248.348    -229.077
  N     -134.150     248.105    -229.035
  O     -129.701     243.164    -227.141
  O     -130.019     242.938    -229.726
  H     -137.210     244.985    -229.810
  H     -130.310     243.462    -230.495
  H     -137.403     251.152    -229.415
  H     -132.062     247.579    -228.890
  H     -135.354     247.056    -227.742
  H     -136.109     246.940    -230.469
  H     -134.146     245.701    -231.137
  H     -134.578     244.002    -228.599
  H     -132.830     243.198    -230.192
  H     -133.604     253.477    -230.078
  H     -132.270     252.343    -229.888
  H     -132.008     244.768    -230.061
  P     -135.101     243.476    -232.365
  C     -134.716     241.155    -231.322
  O     -134.117     242.274    -231.977
  O     -134.578     244.447    -233.371
  O     -136.417     242.716    -232.859
  H     -136.344     242.511    -233.814
  H     -133.966     240.420    -231.114
  H     -135.466     240.730    -231.956
  H     -135.165     241.477    -230.405

 6  7  8  9  10  11  12  13  14  15  25  28  32  33  34  35 0
 6-311+G(2d,p)
 ****
 36  39  40 0
 6-311+G(2d,p)
 ****
 1  2  3  4  5  16  17  18  19  20  21  22  23  24 0
 3-21G
 ****
 26  27  29  30  31  37  38  41  42  43  44  45  46  47 0
 3-21G
 ****
 48 0
 3-21G
 ****


