%nproc=1
%NoSave
%Mem=1900MB
#P OB98/GEN NMR

erre ene a

0 1
  C      -59.192     314.878     558.311
  O      -58.813     315.324     559.600
  H      -58.295     314.822     557.686
  H      -59.896     315.574     557.850
  H      -59.634     313.882     558.374
  P      -59.961     315.651     560.670
  C      -60.137     318.137     560.017
  O      -60.805     316.878     560.076
  C      -61.147     319.283     559.936
  O      -60.439     320.536     560.122
  C      -61.893     319.352     558.598
  O      -63.243     319.752     558.852
  C      -61.149     320.442     557.856
  O      -61.951     321.036     556.853
  C      -60.727     321.383     558.995
  N      -59.572     322.195     558.611
  C      -59.792     323.161     557.622
  O      -60.917     323.306     557.138
  N      -58.732     323.898     557.161
  C      -57.538     323.652     557.608
  N      -56.523     324.389     557.079
  C      -57.254     322.618     558.626
  C      -58.306     321.934     559.080
  O      -59.511     315.826     562.085
  O      -60.970     314.414     560.527
  H      -61.446     321.759     556.421
  H      -60.724     313.706     561.147
  H      -56.236     322.445     558.956
  H      -58.190     321.154     559.823
  H      -61.552     322.049     559.273
  H      -60.260     320.017     557.372
  H      -61.883     318.403     558.048
  H      -61.848     319.186     560.773
  H      -56.764     325.064     556.368
  H      -59.505     318.139     559.118
  H      -55.547     324.256     557.318
  H      -59.500     318.258     560.897
  P      -64.452     318.711     558.676
  C      -64.690     319.025     556.148
  O      -64.404     318.096     557.194
  O      -65.793     319.228     559.093
  O      -64.021     317.465     559.601
  H      -64.820     317.024     559.939
  H      -64.634     318.526     555.203
  H      -63.976     319.822     556.173
  H      -65.674     319.423     556.284

 6  7  8  9  10  11  12  13  14  15  16  26  30  31  32  33  35 0
 6-311+G(2d,p)
 ****
 37  38 0
 6-311+G(2d,p)
 ****
 1  2  3  4  5  17  18  19  20  21  22  23  24  25 0
 3-21G
 ****
 27  28  29  34  36  39  40  41  42  43  44  45  46 0
 3-21G
 ****


