%nproc=1
%NoSave
%Mem=1900MB
#P OB98/GEN NMR

erre ene a

0 1
  C       66.109     141.982     168.772
  O       66.139     140.656     169.300
  P       65.219     140.294     170.562
  C       66.497     140.268     172.802
  O       65.787     141.055     171.855
  C       66.310     140.818     174.227
  O       66.879     142.150     174.318
  C       64.835     140.903     174.646
  O       64.575     140.291     175.910
  C       64.527     142.388     174.553
  O       63.432     142.779     175.367
  C       65.881     143.036     174.860
  N       65.981     144.390     174.308
  C       65.996     145.435     175.220
  O       65.855     145.275     176.433
  N       66.116     146.695     174.691
  C       66.141     147.001     173.364
  O       66.204     148.149     172.936
  C       66.060     145.859     172.440
  C       65.984     144.626     172.949
  O       64.930     138.842     170.757
  O       63.864     141.105     170.258
  H       63.706     142.715     176.308
  H       63.111     140.545     170.539
  H       66.145     147.464     175.342
  H       66.055     146.066     171.381
  H       65.910     143.766     172.293
  H       66.043     143.113     175.942
  H       64.254     142.622     173.515
  H       64.189     140.357     173.949
  H       66.862     140.156     174.903
  H       67.560     140.281     172.557
  H       66.174     139.225     172.725
  P       63.646     139.005     176.118
  C       61.675     140.291     177.205
  O       62.118     139.485     176.132
  O       64.031     138.100     177.240
  O       63.777     138.234     174.718
  H       63.831     137.275     174.885
  H       60.585     140.218     177.269
  H       61.948     141.332     177.017
  H       62.104     139.962     178.156
  H       66.777     142.049     167.939
  H       66.412     142.674     169.529
  H       65.115     142.216     168.452

 3  4  5  6  7  8  9  10  11  12  13  23  28  29  30  31  32 0
 6-311+G(2d,p)
 ****
 33  34 0
 6-311+G(2d,p)
 ****
 1  2  14  15  16  17  18  19  20  21  22  24  25  26  27 0
 3-21G
 ****
 35  36  37  38  39  40  41  42  43  44  45 0
 3-21G
 ****


