%nproc=1
%NoSave
%Mem=1900MB
#P OB98/GEN NMR

erre ene a

0 1
  C     -574.979     673.887     569.928
  O     -574.565     674.413     571.190
  P     -575.209     673.742     572.507
  C     -576.976     675.639     572.743
  O     -576.729     674.247     572.601
  C     -578.224     676.051     571.971
  O     -579.366     675.257     572.360
  C     -578.645     677.501     572.189
  O     -577.874     678.403     571.419
  C     -580.087     677.462     571.703
  O     -580.126     677.591     570.267
  C     -580.546     676.052     572.120
  N     -585.242     676.358     574.021
  C     -584.812     676.395     572.711
  N     -585.773     676.505     571.772
  N     -583.558     676.329     572.357
  C     -582.708     676.192     573.398
  C     -583.007     676.147     574.742
  C     -584.399     676.249     575.127
  O     -584.827     676.255     576.276
  N     -581.873     675.995     575.502
  C     -580.904     675.924     574.631
  N     -581.347     676.055     573.334
  O     -574.487     674.515     573.701
  O     -575.008     672.264     572.585
  H     -579.505     678.301     570.028
  H     -574.456     673.953     574.495
  H     -586.213     676.416     574.242
  H     -579.855     675.774     574.867
  H     -581.121     675.559     571.337
  H     -580.695     678.276     572.099
  H     -586.763     676.482     571.966
  H     -578.625     677.755     573.263
  H     -585.480     676.494     570.794
  H     -578.032     675.887     570.900
  H     -576.113     676.210     572.377
  H     -577.071     675.873     573.809
  P     -576.914     679.414     572.222
  C     -578.389     681.516     571.845
  O     -577.880     680.571     572.766
  O     -576.090     680.120     571.047
  O     -576.030     678.768     573.212
  H     -575.216     680.406     571.378
  H     -578.731     681.034     570.930
  H     -577.625     682.259     571.622
  H     -579.242     682.027     572.303
  H     -574.482     674.415     569.141
  H     -576.037     674.004     569.823
  H     -574.728     672.848     569.875

 3  4  5  6  7  8  9  10  11  12  23  26  30  31  33  0
 6-311+G(2d,p)
 ****
 35  36  37  38 0
 6-311+G(2d,p)
 ****
 1  2  13  14  15  16  17  18  19  20  21  22  24  25  27  28  29 0
 3-21G
 ****
 32  34  39  40  41  42  43  44  45  46  47  48  49 0
 3-21G
 ****


