%nproc=1
%NoSave
%Mem=1900MB
#P OB98/GEN NMR

erre ene a

0 1
  C      900.821     418.061    -586.520
  O      899.877     418.057    -585.471
  H      901.190     419.080    -586.652
  H      900.362     417.730    -587.460
  H      901.666     417.411    -586.271
  P      899.095     416.689    -585.153
  C      897.927     417.436    -582.960
  O      897.783     417.166    -584.346
  C      896.752     418.278    -582.456
  O      896.804     419.620    -583.002
  C      895.375     417.745    -582.852
  O      894.976     416.603    -582.110
  C      894.526     418.972    -582.533
  O      894.343     419.067    -581.113
  C      895.442     420.109    -583.052
  N      895.104     420.533    -584.420
  C      893.832     421.080    -584.608
  O      893.050     421.203    -583.669
  N      893.454     421.459    -585.879
  C      894.280     421.283    -586.876
  N      893.830     421.620    -588.120
  C      895.630     420.716    -586.715
  C      895.987     420.363    -585.472
  O      899.891     415.606    -584.505
  O      898.459     416.256    -586.564
  H      893.691     419.773    -580.952
  H      897.975     415.408    -586.421
  H      896.273     420.585    -587.573
  H      896.945     419.933    -585.283
  H      895.387     420.984    -582.391
  H      893.527     418.941    -582.994
  H      895.330     417.556    -583.933
  H      896.858     418.363    -581.369
  H      892.887     421.962    -588.194
  H      898.883     417.960    -582.812
  H      894.293     421.263    -588.953
  H      897.944     416.502    -582.392
  P      894.740     415.227    -582.922
  C      895.408     414.130    -580.661
  O      894.597     414.074    -581.827
  O      896.163     414.959    -583.588
  O      893.615     415.264    -583.920
  H      896.200     415.321    -584.493
  H      895.191     413.290    -580.035
  H      895.204     415.035    -580.128
  H      896.440     414.107    -580.943

 6  7  8  9  10  11  12  13  14  15  16  26  30  31  32  33  35 0
 6-311+G(2d,p)
 ****
 37  38 0
 6-311+G(2d,p)
 ****
 1  2  3  4  5  17  18  19  20  21  22  23  24  25 0
 3-21G
 ****
 27  28  29  34  36  39  40  41  42  43  44  45  46 0
 3-21G
 ****


