%nproc=1
%NoSave
%Mem=1900MB
#P OB98/GEN NMR

erre ene a

0 1
  C      662.888     323.391     326.230
  O      663.736     322.383     326.740
  P      665.055     321.928     325.967
  C      665.640     319.991     324.360
  O      664.602     320.816     324.890
  C      665.201     319.397     323.013
  O      664.179     318.384     323.261
  C      664.608     320.454     322.056
  O      665.210     320.460     320.758
  C      663.124     320.126     322.083
  O      662.403     320.611     320.967
  C      663.136     318.609     322.293
  N      661.840     318.082     322.733
  C      660.758     318.262     321.868
  O      660.828     318.792     320.766
  N      659.554     317.830     322.335
  C      659.290     317.368     323.597
  O      658.166     317.093     323.982
  C      660.466     317.249     324.480
  C      661.674     317.596     324.005
  O      666.201     321.508     326.824
  O      665.371     323.184     325.016
  H      661.529     320.174     320.951
  H      664.665     323.418     324.399
  H      658.754     317.941     321.723
  H      660.292     316.894     325.484
  H      662.554     317.513     324.644
  H      663.426     318.086     321.381
  H      662.688     320.612     322.966
  H      664.773     321.465     322.437
  H      666.077     318.905     322.571
  H      665.852     319.180     325.062
  H      666.555     320.582     324.253
  P      665.449     321.779     319.871
  C      663.876     323.346     318.509
  O      664.037     322.481     319.611
  O      666.286     321.578     318.653
  O      666.166     322.790     320.891
  H      666.746     323.393     320.400
  H      663.107     324.085     318.748
  H      663.556     322.761     317.640
  H      664.818     323.868     318.273
  H      662.067     323.540     326.900
  H      662.516     323.093     325.272
  H      663.438     324.304     326.132

 3  4  5  6  7  8  9  10  11  12  13  23  28  29  30  31  32 0
 6-311+G(2d,p)
 ****
 33  34 0
 6-311+G(2d,p)
 ****
 1  2  14  15  16  17  18  19  20  21  22  24  25  26  27 0
 3-21G
 ****
 35  36  37  38  39  40  41  42  43  44  45 0
 3-21G
 ****


