%nproc=1
%NoSave
%Mem=1900MB
#P OB98/GEN NMR

erre ene a

0 1
  C       62.712    -121.911     446.333
  O       63.143    -120.720     445.664
  P       64.232    -120.913     444.502
  C       66.101    -120.969     446.305
  O       65.650    -120.422     445.072
  C       67.635    -121.053     446.335
  O       68.150    -122.020     445.391
  C       68.318    -119.735     445.979
  O       68.312    -118.872     447.114
  C       69.714    -120.198     445.596
  O       70.554    -120.369     446.752
  C       69.437    -121.556     444.919
  N       72.341    -121.665     440.758
  C       72.701    -121.564     442.090
  N       74.022    -121.495     442.352
  N       71.839    -121.519     443.073
  C       70.550    -121.589     442.666
  C       70.072    -121.727     441.380
  C       71.029    -121.765     440.301
  O       70.759    -121.884     439.109
  N       68.699    -121.828     441.363
  C       68.351    -121.624     442.626
  N       69.440    -121.543     443.462
  O       63.827    -119.798     443.427
  O       64.218    -122.286     443.899
  H       70.145    -121.026     447.347
  H       63.466    -120.219     442.627
  H       73.042    -121.690     440.039
  H       67.336    -121.564     442.985
  H       70.183    -122.312     445.221
  H       70.220    -119.471     444.953
  H       74.744    -121.522     441.641
  H       67.820    -119.265     445.121
  H       74.316    -121.432     443.319
  H       67.927    -121.365     447.344
  H       65.677    -121.968     446.449
  H       65.734    -120.348     447.119
  P       67.128    -117.803     447.235
  C       68.838    -115.940     446.638
  O       67.792    -116.364     447.491
  O       66.451    -118.168     448.637
  O       66.127    -117.850     446.122
  H       65.472    -118.162     448.545
  H       68.818    -114.851     446.576
  H       68.733    -116.355     445.628
  H       69.798    -116.257     447.061
  H       61.991    -121.658     447.082
  H       63.553    -122.386     446.794
  H       62.270    -122.579     445.623

 3  4  5  6  7  8  9  10  11  12  23  26  30  31 0
 6-311+G(2d,p)
 ****
 33  35  36  37  38 0
 6-311+G(2d,p)
 ****
 1  2  13  14  15  16  17  18  19  20  21  22  24  25 0
 3-21G
 ****
 27  28  29  32  34  39  40  41  42  43  44  45  46  47  48  49 0
 3-21G
 ****


