%nproc=1
%NoSave
%Mem=1900MB
#P OB98/GEN NMR

erre ene a

0 1
  C     -968.149     860.070      76.248
  O     -968.925     858.931      76.590
  H     -967.148     859.925      76.651
  H     -968.584     860.970      76.677
  H     -968.095     860.166      75.161
  P     -970.471     858.953      76.118
  C     -970.053     856.977      74.496
  O     -970.445     858.334      74.636
  C     -971.275     856.097      74.159
  O     -972.064     856.722      73.150
  C     -970.917     854.702      73.653
  O     -970.659     853.831      74.724
  C     -972.206     854.349      72.926
  O     -973.179     853.873      73.891
  C     -972.657     855.681      72.326
  N     -973.758     854.571      67.441
  C     -974.213     854.046      68.594
  N     -973.829     854.355      69.859
  C     -972.894     855.321      69.863
  C     -972.332     855.935      68.753
  C     -972.794     855.546      67.496
  N     -972.335     856.079      66.298
  N     -971.401     856.876      69.137
  C     -971.442     856.874      70.446
  N     -972.304     855.909      70.935
  O     -971.183     860.245      76.290
  O     -971.060     857.731      76.997
  H     -973.174     854.508      74.639
  H     -970.422     856.986      77.012
  H     -974.968     853.279      68.497
  H     -970.855     857.546      71.103
  H     -973.749     855.811      72.393
  H     -972.079     853.540      72.194
  H     -970.092     854.739      72.933
  H     -971.889     856.046      75.071
  H     -969.586     856.617      75.415
  H     -972.589     855.599      65.451
  H     -971.550     856.700      66.348
  H     -969.310     856.925      73.695
  P     -969.218     853.152      74.934
  C     -968.853     854.481      77.121
  O     -968.392     854.228      75.786
  O     -968.581     852.690      73.678
  O     -969.476     851.968      75.982
  H     -968.743     851.334      75.969
  H     -968.224     855.213      77.583
  H     -968.821     853.574      77.687
  H     -969.859     854.845      77.088

 6  7  8  9  10  11  12  13  14  15  25  28  32  33  34  35 0
 6-311+G(2d,p)
 ****
 36  39  40 0
 6-311+G(2d,p)
 ****
 1  2  3  4  5  16  17  18  19  20  21  22  23  24 0
 3-21G
 ****
 26  27  29  30  31  37  38  41  42  43  44  45  46  47 0
 3-21G
 ****
 48 0
 3-21G
 ****


