%nproc=1
%NoSave
%Mem=1900MB
#P OB98/GEN NMR

erre ene a

0 1
  C      161.747    -337.775     307.446
  O      162.385    -336.524     307.568
  H      160.847    -337.768     308.066
  H      162.404    -338.573     307.801
  H      161.458    -337.961     306.407
  P      163.768    -336.265     306.792
  C      164.799    -334.209     305.652
  O      163.866    -334.666     306.622
  C      164.950    -332.689     305.709
  O      163.724    -332.059     305.251
  C      165.248    -332.149     307.119
  O      166.323    -331.211     307.063
  C      163.964    -331.429     307.504
  O      164.164    -330.417     308.483
  C      163.481    -330.947     306.133
  N      162.081    -330.545     306.153
  C      161.817    -329.238     306.581
  O      162.745    -328.496     306.908
  N      160.517    -328.827     306.680
  C      159.554    -329.657     306.421
  N      158.287    -329.193     306.568
  C      159.788    -331.053     305.995
  C      161.060    -331.427     305.876
  O      163.928    -337.045     305.531
  O      164.908    -336.577     307.870
  H      163.289    -330.047     308.731
  H      165.747    -336.784     307.399
  H      158.949    -331.711     305.796
  H      161.328    -332.432     305.572
  H      164.086    -330.097     305.781
  H      163.251    -332.158     307.912
  H      165.495    -332.935     307.833
  H      165.733    -332.390     304.998
  H      158.173    -328.230     306.869
  H      164.451    -334.521     304.659
  H      157.463    -329.752     306.419
  H      165.769    -334.673     305.856
  P      167.729    -331.707     307.662
  C      170.213    -331.222     307.092
  O      168.877    -330.741     307.092
  O      167.981    -333.096     306.910
  O      167.716    -331.876     309.144
  H      167.888    -333.834     307.543
  H      170.861    -330.474     306.686
  H      170.273    -332.108     306.495
  H      170.511    -331.447     308.095

 6  7  8  9  10  11  12  13  14  15  16  26  30  31  32  33  35 0
 6-311+G(2d,p)
 ****
 37  38 0
 6-311+G(2d,p)
 ****
 1  2  3  4  5  17  18  19  20  21  22  23  24  25 0
 3-21G
 ****
 27  28  29  34  36  39  40  41  42  43  44  45  46 0
 3-21G
 ****


