%nproc=1
%NoSave
%Mem=1900MB
#P OB98/GEN NMR

erre ene a

0 1
  C      -21.398      32.489     103.301
  O      -22.604      31.832     102.965
  H      -20.567      31.793     103.154
  H      -21.420      32.794     104.351
  H      -21.248      33.363     102.661
  P      -23.933      32.724     102.946
  C      -25.339      31.211     101.324
  O      -24.672      32.447     101.545
  C      -25.396      30.911      99.828
  O      -24.076      30.724      99.282
  C      -26.116      29.618      99.486
  O      -27.510      29.700      99.679
  C      -25.702      29.448      98.033
  O      -26.479      30.291      97.171
  C      -24.228      29.923      98.079
  N      -23.284      28.815      98.045
  C      -22.685      28.563      96.804
  O      -22.958      29.264      95.829
  N      -21.817      27.506      96.696
  C      -21.549      26.781      97.736
  N      -20.688      25.743      97.560
  C      -22.137      27.028      99.067
  C      -22.991      28.046      99.147
  O      -23.359      34.204     102.756
  O      -24.831      32.556     104.127
  H      -26.346      29.954      96.264
  H      -22.764      34.296     101.993
  H      -21.877      26.403      99.909
  H      -23.467      28.296     100.086
  H      -24.009      30.583      97.230
  H      -25.840      28.424      97.683
  H      -25.688      28.784     100.057
  H      -25.856      31.772      99.327
  H      -20.321      25.591      96.629
  H      -26.344      31.227     101.754
  H      -20.432      25.093      98.288
  H      -24.770      30.433     101.843
  P      -28.162      29.319     101.094
  C      -29.839      31.252     100.819
  O      -28.845      30.662     101.650
  O      -27.242      28.646     102.056
  O      -29.435      28.437     100.686
  H      -30.085      28.895     100.125
  H      -30.220      32.134     101.290
  H      -30.637      30.556     100.668
  H      -29.407      31.510      99.874

 6  7  8  9  10  11  12  13  14  15  16  26  30  31  32  33  35 0
 6-311+G(2d,p)
 ****
 37  38 0
 6-311+G(2d,p)
 ****
 1  2  3  4  5  17  18  19  20  21  22  23  24  25 0
 3-21G
 ****
 27  28  29  34  36  39  40  41  42  43  44  45  46 0
 3-21G
 ****


