%nproc=1
%NoSave
%Mem=1900MB
#P OB98/GEN NMR

erre ene a

0 1
  C      448.288    -989.595     896.828
  O      448.152    -990.189     898.103
  P      448.697    -991.703     898.280
  C      449.338    -993.143     900.383
  O      449.033    -991.871     899.842
  C      449.305    -993.080     901.929
  O      450.251    -992.086     902.385
  C      447.961    -992.665     902.504
  O      447.024    -993.724     902.495
  C      448.394    -992.202     903.906
  O      448.574    -993.341     904.771
  C      449.745    -991.518     903.621
  N      449.680    -990.070     903.552
  C      449.237    -989.401     904.684
  O      448.906    -990.010     905.712
  N      449.163    -988.030     904.599
  C      449.415    -987.279     903.491
  O      449.290    -986.065     903.469
  C      449.847    -988.047     902.308
  C      449.949    -989.374     902.383
  O      450.118    -991.588     897.572
  O      447.776    -992.730     897.694
  H      450.482    -990.675     897.612
  H      448.813    -992.976     905.636
  H      448.845    -987.543     905.432
  H      450.055    -987.466     901.397
  H      450.286    -989.936     901.520
  H      450.465    -991.794     904.393
  H      447.654    -991.532     904.369
  H      447.553    -991.796     901.960
  H      449.612    -994.048     902.316
  H      450.333    -993.463     900.060
  H      448.601    -993.877     900.020
  P      445.535    -993.387     903.018
  C      443.352    -994.730     902.556
  O      444.544    -994.152     902.036
  O      445.413    -991.852     902.591
  O      445.353    -993.650     904.478
  H      445.762    -991.662     901.699
  H      442.644    -994.875     901.731
  H      442.886    -994.076     903.311
  H      443.569    -995.698     903.003
  H      447.890    -988.602     896.853
  H      447.754    -990.176     896.105
  H      449.323    -989.557     896.561

 3  4  5  6  7  8  9  10  11  12  13  24  28  29  30  31  32 0
 6-311+G(2d,p)
 ****
 33  34 0
 6-311+G(2d,p)
 ****
 1  2  14  15  16  17  18  19  20  21  22  23  25  26  27 0
 3-21G
 ****
 35  36  37  38  39  40  41  42  43  44  45 0
 3-21G
 ****


