%nproc=1
%NoSave
%Mem=1900MB
#P OB98/GEN NMR

erre ene a

0 1
  C      197.058      62.434     -76.257
  O      195.943      63.213     -76.708
  P      195.456      64.561     -75.981
  C      194.334      65.204     -73.734
  O      194.966      64.181     -74.496
  C      192.827      64.953     -73.627
  O      192.239      64.859     -74.949
  C      192.431      63.644     -72.953
  O      192.623      63.685     -71.548
  C      190.969      63.516     -73.382
  O      190.100      64.264     -72.518
  C      190.983      64.148     -74.790
  N      190.799      63.171     -75.853
  C      189.520      62.607     -75.970
  O      188.643      62.876     -75.149
  N      189.288      61.739     -77.008
  C      190.255      61.381     -77.791
  N      189.954      60.532     -78.813
  C      191.646      61.850     -77.618
  C      191.841      62.736     -76.640
  O      194.448      65.343     -76.764
  O      196.789      65.418     -75.738
  H      196.565      66.366     -75.700
  H      190.160      63.851     -71.634
  H      192.436      61.495     -78.267
  H      192.833      63.142     -76.451
  H      190.205      64.918     -74.866
  H      190.624      62.477     -73.365
  H      193.013      62.822     -73.388
  H      192.372      65.807     -73.104
  H      188.987      60.238     -78.911
  H      194.499      66.165     -74.238
  H      190.633      60.215     -79.489
  H      194.796      65.250     -72.740
  P      193.457      62.474     -70.895
  C      193.176      59.898     -70.694
  O      192.600      61.132     -71.092
  O      193.360      62.762     -69.316
  O      194.877      62.387     -71.348
  H      194.217      62.548     -68.894
  H      192.370      59.207     -70.429
  H      193.838      60.019     -69.831
  H      193.743      59.481     -71.532
  H      197.185      61.588     -76.900
  H      196.878      62.098     -75.257
  H      197.944      63.034     -76.277

 3  4  5  6  7  8  9  10  11  12  13  24  27  28  29  30  32 0
 6-311+G(2d,p)
 ****
 34  35 0
 6-311+G(2d,p)
 ****
 1  2  14  15  16  17  18  19  20  21  22  23  25  26 0
 3-21G
 ****
 31  33  36  37  38  39  40  41  42  43  44  45  46 0
 3-21G
 ****


