%nproc=1
%NoSave
%Mem=1900MB
#P OB98/GEN NMR

erre ene a

0 1
  C     -367.217    -871.808    -424.261
  O     -367.560    -872.600    -425.390
  H     -366.121    -871.706    -424.231
  H     -367.554    -872.283    -423.336
  H     -367.662    -870.813    -424.355
  P     -369.117    -872.959    -425.564
  C     -369.090    -873.149    -428.163
  O     -369.243    -873.825    -426.921
  C     -368.231    -874.012    -429.093
  O     -366.924    -874.202    -428.501
  C     -368.780    -875.410    -429.333
  O     -369.834    -875.431    -430.292
  C     -367.529    -876.125    -429.839
  O     -367.318    -875.926    -431.243
  C     -366.418    -875.469    -429.011
  N     -365.948    -876.339    -427.937
  C     -365.216    -877.465    -428.340
  O     -364.977    -877.719    -429.511
  N     -364.802    -878.303    -427.338
  C     -365.095    -878.177    -426.009
  O     -364.759    -878.999    -425.175
  C     -365.888    -876.976    -425.636
  C     -366.275    -876.135    -426.595
  O     -369.772    -871.553    -425.960
  O     -369.765    -873.567    -424.380
  H     -370.274    -871.203    -425.199
  H     -366.588    -876.523    -431.495
  H     -364.273    -879.127    -427.606
  H     -366.138    -876.837    -424.586
  H     -366.869    -875.249    -426.355
  H     -365.566    -875.225    -429.646
  H     -367.610    -877.206    -429.671
  H     -369.105    -875.862    -428.393
  H     -368.097    -873.474    -430.040
  H     -368.585    -872.190    -428.015
  H     -370.075    -872.977    -428.600
  P     -370.666    -876.789    -430.468
  C     -372.879    -875.406    -430.826
  O     -371.964    -876.405    -431.308
  O     -371.176    -877.012    -428.975
  O     -369.828    -877.894    -431.036
  H     -371.267    -876.176    -428.492
  H     -373.681    -875.290    -431.525
  H     -372.364    -874.474    -430.716
  H     -373.272    -875.710    -429.878

 6  7  8  9  10  11  12  13  14  15  16  27  31  32  33  34  35 0
 6-311+G(2d,p)
 ****
 36  37 0
 6-311+G(2d,p)
 ****
 1  2  3  4  5  17  18  19  20  21  22  23  24  25 0
 3-21G
 ****
 26  28  29  30  38  39  40  41  42  43  44  45 0
 3-21G
 ****


