%nproc=1
%NoSave
%Mem=1900MB
#P OB98/GEN NMR

erre ene a

0 1
  C       77.205      27.003    -112.424
  O       78.149      28.017    -112.073
  P       79.681      27.562    -111.941
  C       81.188      25.790    -113.095
  O       80.027      26.604    -113.178
  C       81.557      25.254    -114.479
  O       80.552      24.352    -114.989
  C       81.689      26.346    -115.536
  O       82.898      27.065    -115.375
  C       81.604      25.520    -116.813
  O       82.869      24.894    -117.090
  C       80.569      24.448    -116.435
  N       77.307      23.880    -120.334
  C       78.580      23.466    -120.155
  N       79.383      23.661    -119.088
  C       78.742      24.351    -118.131
  C       77.444      24.838    -118.170
  C       76.711      24.581    -119.339
  N       75.421      25.017    -119.528
  N       77.138      25.503    -116.999
  C       78.240      25.441    -116.278
  N       79.233      24.746    -116.916
  O       79.666      26.573    -110.683
  O       80.628      28.700    -111.738
  H       82.783      24.433    -117.950
  H       80.101      26.998    -109.921
  H       79.014      22.907    -120.980
  H       78.365      25.884    -115.297
  H       80.838      23.456    -116.822
  H       81.335      26.113    -117.691
  H       80.836      27.034    -115.476
  H       82.503      24.706    -114.391
  H       81.020      24.955    -112.409
  H       74.993      24.859    -120.428
  H       74.997      25.613    -118.831
  H       82.006      26.384    -112.671
  P       82.807      28.660    -115.218
  C       81.518      30.029    -113.464
  O       82.283      28.860    -113.708
  O       81.508      28.994    -116.086
  O       84.046      29.402    -115.578
  H       80.777      28.379    -115.896
  H       81.199      30.020    -112.418
  H       80.633      30.042    -114.107
  H       82.125      30.915    -113.645
  H       76.226      27.431    -112.480
  H       77.216      26.233    -111.681
  H       77.466      26.586    -113.374

 3  4  5  6  7  8  9  10  11  12  22  25  29  30  31  32 0
 6-311+G(2d,p)
 ****
 33  36  37 0
 6-311+G(2d,p)
 ****
 1  2  13  14  15  16  17  18  19  20  21  23  24  26 0
 3-21G
 ****
 27  28  34  35  38  39  40  41  42  43  44  45  46  47  48 0
 3-21G
 ****


