%nproc=1
%NoSave
%Mem=1900MB
#P OB98/GEN NMR

erre ene a

0 1
  C      219.026     320.262     197.902
  O      218.212     321.382     198.189
  H      218.394     319.371     197.852
  H      219.766     320.120     198.696
  H      219.532     320.384     196.938
  P      218.863     322.845     198.136
  C      219.248     324.688     199.905
  O      219.115     323.295     199.654
  C      218.735     325.037     201.310
  O      217.287     324.821     201.341
  C      219.346     324.183     202.439
  O      219.366     324.998     203.621
  C      218.310     323.074     202.550
  O      218.480     322.286     203.702
  C      217.030     323.915     202.439
  N      215.801     323.162     202.205
  C      214.808     323.226     203.182
  O      214.891     323.883     204.224
  N      213.674     322.497     202.926
  C      213.437     321.739     201.812
  O      212.390     321.133     201.625
  C      214.528     321.704     200.825
  C      215.639     322.407     201.055
  O      218.146     323.844     197.289
  O      220.350     322.575     197.596
  H      220.401     322.804     196.648
  H      219.422     322.009     203.761
  H      212.942     322.537     203.619
  H      214.377     321.105     199.933
  H      216.456     322.412     200.341
  H      216.908     324.531     203.340
  H      218.400     322.388     201.703
  H      220.359     323.835     202.220
  H      218.899     326.105     201.488
  H      218.664     325.228     199.151
  H      220.304     324.970     199.813
  P      220.709     325.635     204.231
  C      222.664     324.858     205.750
  O      221.395     324.539     205.191
  O      220.506     326.967     204.888
  O      221.725     325.748     202.996
  H      222.359     326.469     203.163
  H      222.998     324.046     206.362
  H      222.579     325.743     206.346
  H      223.369     325.025     204.962

 6  7  8  9  10  11  12  13  14  15  16  27  31  32  33  34  35 0
 6-311+G(2d,p)
 ****
 36  37 0
 6-311+G(2d,p)
 ****
 1  2  3  4  5  17  18  19  20  21  22  23  24  25 0
 3-21G
 ****
 26  28  29  30  38  39  40  41  42  43  44  45 0
 3-21G
 ****


