%nproc=1
%NoSave
%Mem=1900MB
#P OB98/GEN NMR

erre ene a

0 1
  C      227.399     375.162     536.787
  O      228.601     374.465     537.051
  P      228.586     373.079     537.847
  C      228.198     371.495     535.875
  O      227.630     372.067     537.046
  C      228.057     369.973     535.876
  O      228.486     369.456     534.583
  C      228.878     369.250     536.953
  O      228.121     368.105     537.355
  C      230.113     368.798     536.182
  O      230.797     367.726     536.819
  C      229.482     368.445     534.843
  N      233.584     366.058     532.940
  C      232.887     365.873     534.082
  N      231.819     366.566     534.528
  C      231.488     367.539     533.664
  C      232.124     367.869     532.480
  C      233.218     367.065     532.113
  N      233.923     367.218     530.938
  N      231.524     368.971     531.899
  C      230.544     369.294     532.720
  N      230.445     368.417     533.763
  O      228.290     373.186     539.309
  O      230.043     372.471     537.603
  H      231.007     367.995     537.731
  H      230.584     372.555     538.417
  H      233.220     365.054     534.712
  H      229.883     370.143     532.604
  H      228.980     367.469     534.870
  H      230.812     369.639     536.087
  H      229.127     369.874     537.817
  H      226.993     369.730     535.977
  H      229.258     371.756     535.849
  H      234.594     366.508     530.710
  H      233.511     367.775     530.186
  H      227.717     371.918     534.982
  P      228.415     367.413     538.774
  C      226.161     367.541     539.985
  O      227.446     368.121     539.831
  O      229.851     367.340     539.164
  O      227.767     365.952     538.614
  H      228.130     365.359     539.304
  H      225.510     367.882     539.178
  H      225.737     367.859     540.946
  H      226.218     366.448     539.973
  H      227.618     376.060     536.248
  H      226.920     375.409     537.711
  H      226.750     374.544     536.202

 3  4  5  6  7  8  9  10  11  12  22  25  29  30  31  32 0
 6-311+G(2d,p)
 ****
 33  36  37 0
 6-311+G(2d,p)
 ****
 1  2  13  14  15  16  17  18  19  20  21  23  24  26 0
 3-21G
 ****
 27  28  34  35  38  39  40  41  42  43  44  45  46  47  48 0
 3-21G
 ****


