%nproc=1
%NoSave
%Mem=1900MB
#P OB98/GEN NMR

erre ene a

0 1
  C     -613.910    -417.680    -970.751
  O     -612.927    -418.410    -971.454
  H     -614.126    -416.758    -971.294
  H     -613.530    -417.420    -969.757
  H     -614.841    -418.255    -970.659
  P     -612.564    -419.896    -970.956
  C     -611.244    -420.917    -968.995
  O     -611.583    -419.737    -969.705
  C     -609.716    -420.982    -968.804
  O     -609.329    -420.080    -967.742
  C     -609.211    -422.362    -968.362
  O     -609.182    -423.269    -969.439
  C     -607.851    -421.995    -967.802
  O     -606.879    -421.850    -968.848
  C     -608.137    -420.650    -967.129
  N     -608.278    -420.736    -965.678
  C     -607.256    -420.207    -964.916
  O     -606.269    -419.640    -965.403
  N     -607.371    -420.378    -963.562
  C     -608.301    -421.140    -962.928
  O     -608.220    -421.476    -961.758
  C     -609.398    -421.640    -963.786
  C     -609.342    -421.429    -965.100
  O     -612.086    -420.842    -972.014
  O     -613.924    -420.408    -970.278
  H     -614.376    -421.021    -970.893
  H     -607.096    -422.552    -969.509
  H     -606.599    -420.011    -962.995
  H     -610.202    -422.186    -963.302
  H     -610.120    -421.822    -965.725
  H     -607.319    -419.920    -967.353
  H     -607.487    -422.747    -967.102
  H     -609.851    -422.750    -967.561
  H     -609.222    -420.657    -969.714
  H     -611.551    -421.794    -969.600
  H     -611.750    -420.937    -968.043
  P     -609.029    -424.844    -969.184
  C     -607.615    -426.312    -967.608
  O     -607.686    -425.082    -968.353
  O     -609.179    -425.715    -970.380
  O     -610.184    -425.147    -968.099
  H     -610.685    -425.945    -968.406
  H     -606.678    -426.364    -967.094
  H     -607.700    -427.141    -968.279
  H     -608.414    -426.345    -966.897

 6  7  8  9  10  11  12  13  14  15  16  27  31  32  33  34  35 0
 6-311+G(2d,p)
 ****
 36  37 0
 6-311+G(2d,p)
 ****
 1  2  3  4  5  17  18  19  20  21  22  23  24  25 0
 3-21G
 ****
 26  28  29  30  38  39  40  41  42  43  44  45 0
 3-21G
 ****


