%nproc=1
%NoSave
%Mem=1900MB
#P OB98/GEN NMR

erre ene a

0 1
  C      317.275     -32.593     388.704
  O      316.651     -31.320     388.775
  P      315.089     -31.134     388.448
  C      313.958     -30.465     390.677
  O      314.326     -31.519     389.804
  C      312.740     -30.864     391.512
  O      311.633     -31.152     390.615
  C      312.958     -32.102     392.395
  O      312.203     -31.901     393.598
  C      312.348     -33.217     391.568
  O      311.984     -34.346     392.348
  C      311.172     -32.482     390.914
  N      310.694     -33.154     389.708
  C      309.764     -34.187     389.869
  O      309.388     -34.533     390.988
  N      309.282     -34.813     388.747
  C      309.744     -34.496     387.577
  N      309.192     -35.105     386.493
  C      310.803     -33.487     387.374
  C      311.208     -32.851     388.471
  O      314.611     -31.855     387.237
  O      314.886     -29.550     388.389
  H      311.675     -35.049     391.745
  H      315.095     -29.169     387.500
  H      311.180     -33.281     386.383
  H      311.962     -32.079     388.416
  H      310.348     -32.376     391.630
  H      313.070     -33.550     390.813
  H      314.009     -32.262     392.646
  H      312.447     -30.001     392.126
  H      308.357     -35.654     386.658
  H      313.700     -29.591     390.072
  H      309.259     -34.687     385.569
  H      314.806     -30.203     391.321
  P      312.901     -32.258     395.000
  C      314.546     -30.263     395.188
  O      314.384     -31.652     394.988
  O      313.189     -33.834     394.827
  O      312.081     -32.025     396.228
  H      313.225     -34.246     395.706
  H      315.613     -30.026     395.155
  H      314.157     -29.967     396.165
  H      314.041     -29.702     394.396
  H      318.310     -32.497     388.958
  H      317.185     -32.979     387.710
  H      316.800     -33.262     389.391

 3  4  5  6  7  8  9  10  11  12  13  23  27  28  29  30  32 0
 6-311+G(2d,p)
 ****
 34  35 0
 6-311+G(2d,p)
 ****
 1  2  14  15  16  17  18  19  20  21  22  24  25  26 0
 3-21G
 ****
 31  33  36  37  38  39  40  41  42  43  44  45  46 0
 3-21G
 ****


