%nproc=1
%NoSave
%Mem=1900MB
#P OB98/GEN NMR

erre ene a

0 1
  C     -892.378    -271.778    -890.480
  O     -893.708    -271.488    -890.790
  H     -892.258    -271.909    -889.400
  H     -891.718    -270.961    -890.810
  H     -892.058    -272.721    -890.960
  P     -894.148    -271.596    -892.320
  C     -896.198    -273.080    -891.760
  O     -894.998    -272.972    -892.500
  C     -896.928    -274.390    -892.110
  O     -897.318    -274.348    -893.520
  C     -896.048    -275.649    -891.930
  O     -896.858    -276.708    -891.400
  C     -895.588    -275.980    -893.330
  O     -895.278    -277.367    -893.490
  C     -896.818    -275.543    -894.140
  N     -897.088    -277.351    -898.850
  C     -897.628    -277.829    -897.660
  N     -898.358    -278.959    -897.750
  N     -897.468    -277.249    -896.510
  C     -896.768    -276.113    -896.580
  C     -896.158    -275.548    -897.660
  C     -896.318    -276.195    -898.950
  O     -895.818    -275.849    -900.000
  N     -895.488    -274.391    -897.320
  C     -895.678    -274.253    -896.030
  N     -896.458    -275.277    -895.510
  O     -892.768    -271.930    -893.090
  O     -894.798    -270.384    -892.910
  H     -896.078    -277.882    -893.270
  H     -892.518    -271.191    -893.680
  H     -897.208    -277.863    -899.710
  H     -895.288    -273.462    -895.390
  H     -897.608    -276.288    -894.150
  H     -894.718    -275.402    -893.600
  H     -898.558    -279.432    -898.620
  H     -895.198    -275.464    -891.240
  H     -898.818    -279.306    -896.910
  H     -897.848    -274.454    -891.510
  H     -896.858    -272.234    -892.030
  H     -895.988    -273.050    -890.670
  P     -896.878    -276.884    -889.800
  C     -899.348    -276.138    -889.620
  O     -898.028    -275.943    -889.170
  O     -895.488    -276.178    -889.320
  O     -896.918    -278.315    -889.350
  H     -894.858    -276.859    -889.060
  H     -900.000    -275.451    -889.122
  H     -899.654    -277.140    -889.404
  H     -899.393    -275.971    -890.676

 6  7  8  9  10  11  12  13  14  15  26  29  33  34 0
 6-311+G(2d,p)
 ****
 36  38  39  40  41 0
 6-311+G(2d,p)
 ****
 1  2  3  4  5  16  17  18  19  20  21  22  23  24  25 0
 3-21G
 ****
 27  28  30  31  32  35  37  42  43  44  45  46  47 0
 3-21G
 ****
 48  49 0
 3-21G
 ****


