%nproc=1
%NoSave
%Mem=1900MB
#P OB98/GEN NMR

erre ene a

0 1
  C      136.061    -204.383      47.969
  O      136.559    -203.740      46.812
  H      135.116    -203.915      48.255
  H      136.771    -204.276      48.791
  H      135.882    -205.447      47.772
  P      137.817    -204.409      46.078
  C      136.267    -205.728      44.453
  O      137.331    -204.794      44.594
  C      135.707    -205.670      43.030
  O      134.912    -204.449      42.897
  C      136.781    -205.635      41.934
  O      136.299    -206.378      40.804
  C      136.856    -204.164      41.562
  O      137.365    -203.919      40.258
  C      135.384    -203.758      41.726
  N      135.217    -202.308      41.869
  C      135.091    -201.557      40.701
  O      135.030    -202.029      39.566
  N      135.043    -200.196      40.879
  C      135.125    -199.531      42.069
  O      135.097    -198.304      42.159
  C      135.265    -200.376      43.265
  C      135.306    -201.701      43.112
  O      137.942    -205.829      46.805
  O      139.089    -203.627      46.131
  H      138.526    -205.765      47.589
  H      137.008    -204.620      39.670
  H      134.952    -199.638      40.041
  H      135.343    -199.883      44.224
  H      135.431    -202.358      43.974
  H      134.793    -204.106      40.871
  H      137.490    -203.627      42.283
  H      137.754    -206.031      42.247
  H      135.023    -206.516      42.886
  H      135.475    -205.484      45.164
  H      136.641    -206.736      44.673
  P      137.013    -207.781      40.482
  C      135.015    -208.724      39.059
  O      136.373    -208.283      39.099
  O      136.354    -208.729      41.595
  O      138.505    -207.701      40.517
  H      135.422    -208.498      41.781
  H      134.765    -209.019      38.061
  H      134.372    -207.926      39.367
  H      134.891    -209.557      39.719

 6  7  8  9  10  11  12  13  14  15  16  27  31  32  33  34  35 0
 6-311+G(2d,p)
 ****
 36  37 0
 6-311+G(2d,p)
 ****
 1  2  3  4  5  17  18  19  20  21  22  23  24  25 0
 3-21G
 ****
 26  28  29  30  38  39  40  41  42  43  44  45 0
 3-21G
 ****


