%nproc=1
%NoSave
%Mem=1900MB
#P OB98/GEN NMR

erre ene a

0 1
  C        9.102    -174.903      68.403
  O        9.999    -175.562      67.532
  H        8.320    -174.426      67.808
  H        9.632    -174.133      68.970
  H        8.636    -175.617      69.091
  P       11.096    -176.525      68.195
  C       13.037    -175.172      67.112
  O       12.406    -176.435      67.267
  C       13.393    -174.940      65.643
  O       12.183    -174.569      64.924
  C       14.419    -173.822      65.418
  O       15.265    -174.196      64.319
  C       13.558    -172.642      65.006
  O       14.254    -171.655      64.253
  C       12.464    -173.353      64.202
  N       11.257    -172.539      64.055
  C       11.264    -171.556      63.068
  O       12.176    -171.382      62.257
  N       10.156    -170.747      63.030
  C        9.085    -170.807      63.874
  O        8.132    -170.042      63.804
  C        9.139    -171.858      64.900
  C       10.207    -172.659      64.944
  O       10.524    -177.989      67.886
  O       11.349    -176.305      69.649
  H        9.933    -178.284      68.605
  H       13.603    -170.966      64.000
  H       10.147    -170.030      62.322
  H        8.311    -171.931      65.597
  H       10.287    -173.434      65.705
  H       12.837    -173.638      63.212
  H       13.139    -172.158      65.892
  H       15.037    -173.595      66.295
  H       13.746    -175.888      65.213
  H       13.953    -175.148      67.712
  H       12.360    -174.386      67.469
  P       16.815    -173.781      64.402
  C       16.898    -173.702      61.782
  O       17.450    -174.206      62.991
  O       17.367    -174.868      65.435
  O       17.015    -172.357      64.807
  H       16.935    -175.734      65.346
  H       17.447    -174.091      60.950
  H       16.958    -172.634      61.781
  H       15.874    -174.002      61.705

 6  7  8  9  10  11  12  13  14  15  16  27  31  32  33  34  35 0
 6-311+G(2d,p)
 ****
 36  37 0
 6-311+G(2d,p)
 ****
 1  2  3  4  5  17  18  19  20  21  22  23  24  25 0
 3-21G
 ****
 26  28  29  30  38  39  40  41  42  43  44  45 0
 3-21G
 ****


