%nproc=1
%NoSave
%Mem=1900MB
#P OB98/GEN NMR

erre ene a

0 1
  C      -15.709      36.071     -64.425
  O      -16.898      35.395     -63.995
  P      -16.884      34.015     -63.176
  C      -17.125      35.496     -61.066
  O      -16.521      34.346     -61.647
  C      -17.900      35.121     -59.800
  O      -18.773      33.997     -60.060
  C      -17.046      34.665     -58.627
  O      -16.359      35.737     -58.009
  C      -18.093      33.994     -57.740
  O      -18.772      34.953     -56.916
  C      -19.070      33.404     -58.774
  N      -19.017      31.954     -58.843
  C      -19.932      31.254     -58.051
  O      -20.678      31.858     -57.280
  N      -19.967      29.885     -58.143
  C      -19.095      29.265     -58.875
  N      -19.189      27.910     -58.941
  C      -18.026      29.959     -59.618
  C      -18.049      31.289     -59.560
  O      -16.019      32.960     -63.783
  O      -18.412      33.543     -63.114
  H      -18.451      32.573     -63.022
  H      -19.529      34.489     -56.509
  H      -17.294      29.402     -60.183
  H      -17.307      31.879     -60.090
  H      -20.096      33.716     -58.544
  H      -17.650      33.250     -57.070
  H      -16.328      33.911     -58.974
  H      -18.516      35.983     -59.511
  H      -19.940      27.466     -58.428
  H      -17.823      35.925     -61.794
  H      -18.575      27.335     -59.499
  H      -16.351      36.238     -60.847
  P      -14.773      35.812     -58.238
  C      -14.739      38.403     -58.386
  O      -14.459      37.172     -59.023
  O      -14.495      34.669     -59.326
  O      -13.959      35.597     -57.005
  H      -13.659      34.213     -59.115
  H      -14.065      39.165     -58.784
  H      -14.603      38.338     -57.303
  H      -15.769      38.695     -58.605
  H      -15.977      36.965     -64.949
  H      -15.150      35.431     -65.074
  H      -15.113      36.322     -63.572

 3  4  5  6  7  8  9  10  11  12  13  24  27  28  29  30  32 0
 6-311+G(2d,p)
 ****
 34  35 0
 6-311+G(2d,p)
 ****
 1  2  14  15  16  17  18  19  20  21  22  23  25  26 0
 3-21G
 ****
 31  33  36  37  38  39  40  41  42  43  44  45  46 0
 3-21G
 ****


