%nproc=1
%NoSave
%Mem=1900MB
#P OB98/GEN NMR

erre ene a

0 1
  C      186.435    -155.716     446.932
  O      185.615    -154.775     447.596
  P      184.020    -154.914     447.398
  C      184.052    -153.639     445.129
  O      183.736    -154.851     445.813
  C      183.757    -153.769     443.634
  O      184.035    -152.495     442.993
  C      184.584    -154.844     442.897
  O      183.735    -155.396     441.885
  C      185.704    -154.018     442.291
  O      186.409    -154.667     441.247
  C      184.929    -152.767     441.890
  N      185.854    -148.790     438.791
  C      184.852    -149.707     438.812
  N      184.671    -150.731     439.674
  C      185.650    -150.753     440.596
  C      186.730    -149.903     440.692
  C      186.815    -148.882     439.728
  N      187.845    -147.948     439.709
  N      187.549    -150.248     441.756
  C      186.955    -151.299     442.291
  N      185.795    -151.626     441.635
  O      183.473    -153.507     447.930
  O      183.392    -156.076     448.110
  H      186.939    -154.015     440.745
  H      182.627    -153.625     448.421
  H      184.099    -149.609     438.035
  H      187.337    -151.859     443.135
  H      184.324    -152.926     440.994
  H      186.434    -153.780     443.070
  H      184.928    -155.647     443.555
  H      182.687    -153.974     443.508
  H      185.127    -153.445     445.248
  H      187.920    -147.391     438.867
  H      188.651    -148.150     440.280
  H      183.502    -152.816     445.574
  P      183.559    -156.991     441.806
  C      184.995    -156.959     439.668
  O      184.844    -157.476     440.968
  O      182.400    -157.118     440.707
  O      183.274    -157.683     443.089
  H      182.604    -156.596     439.907
  H      185.946    -157.285     439.251
  H      184.978    -155.858     439.690
  H      184.180    -157.320     439.019
  H      187.462    -155.509     447.148
  H      186.272    -155.649     445.877
  H      186.191    -156.702     447.269

 3  4  5  6  7  8  9  10  11  12  22  25  29  30  31  32 0
 6-311+G(2d,p)
 ****
 33  36  37 0
 6-311+G(2d,p)
 ****
 1  2  13  14  15  16  17  18  19  20  21  23  24  26 0
 3-21G
 ****
 27  28  34  35  38  39  40  41  42  43  44  45  46  47  48 0
 3-21G
 ****


