%nproc=1
%NoSave
%Mem=1900MB
#P OB98/GEN NMR

erre ene a

0 1
  C      778.579    -897.970    -300.998
  O      777.779    -898.400    -299.906
  P      778.508    -898.690    -298.499
  C      777.004    -897.250    -296.935
  O      778.258    -897.400    -297.565
  C      777.168    -896.500    -295.614
  O      778.065    -897.250    -294.763
  C      777.744    -895.080    -295.750
  O      777.154    -894.290    -294.704
  C      779.216    -895.290    -295.463
  O      779.859    -894.080    -295.063
  C      779.152    -896.350    -294.401
  N      783.702    -896.620    -292.202
  C      782.726    -895.640    -292.128
  N      782.978    -894.630    -291.291
  N      781.609    -895.670    -292.781
  C      781.485    -896.760    -293.583
  C      782.389    -897.790    -293.773
  C      783.602    -897.760    -293.011
  O      784.450    -898.650    -292.991
  N      781.935    -898.670    -294.719
  C      780.735    -898.240    -295.021
  N      780.402    -897.120    -294.324
  O      780.059    -898.570    -298.888
  O      778.168    -900.000    -297.837
  H      780.814    -894.270    -294.940
  H      780.431    -899.450    -299.085
  H      784.547    -896.570    -291.649
  H      780.060    -898.700    -295.734
  H      778.954    -895.960    -293.404
  H      779.719    -895.650    -296.373
  H      783.825    -894.550    -290.709
  H      777.544    -894.620    -296.724
  H      782.286    -893.910    -291.176
  H      776.190    -896.470    -295.117
  H      776.601    -898.250    -296.713
  H      776.292    -896.740    -297.609
  P      776.646    -892.810    -295.073
  C      774.227    -893.180    -295.928
  O      775.586    -892.960    -296.266
  O      777.904    -892.160    -295.816
  O      776.217    -891.990    -293.896
  H      777.934    -891.200    -295.633
  H      773.580    -892.840    -296.754
  H      773.928    -892.640    -295.028
  H      774.072    -894.240    -295.745
  H      777.959    -897.819    -301.857
  H      779.315    -898.715    -301.216
  H      779.066    -897.052    -300.744

 3  4  5  6  7  8  9  10  11  12  23  26  30  31 0
 6-311+G(2d,p)
 ****
 33  35  36  37  38 0
 6-311+G(2d,p)
 ****
 1  2  13  14  15  16  17  18  19  20  21  22  24  25 0
 3-21G
 ****
 27  28  29  32  34  39  40  41  42  43  44  45  46  47  48  49 0
 3-21G
 ****


