%nproc=1
%NoSave
%Mem=1900MB
#P OB98/GEN NMR

erre ene a

0 1
  C       70.481      23.438      46.699
  O       70.167      24.582      45.920
  P       70.762      25.994      46.399
  C       68.961      26.189      48.259
  O       70.344      26.182      47.936
  C       68.639      27.302      49.257
  O       69.336      27.031      50.505
  C       69.052      28.711      48.799
  O       68.071      29.617      49.314
  C       70.388      28.892      49.496
  O       70.826      30.239      49.565
  C       70.093      28.219      50.832
  N       73.905      30.062      53.695
  C       72.813      30.654      53.161
  N       71.836      30.097      52.416
  C       72.060      28.782      52.247
  C       73.136      28.046      52.713
  C       74.091      28.740      53.472
  N       75.210      28.135      54.010
  N       73.040      26.729      52.316
  C       71.924      26.670      51.618
  N       71.289      27.880      51.567
  O       69.839      27.051      45.636
  O       72.215      26.200      46.102
  H       71.674      30.289      50.049
  H       70.359      27.818      45.327
  H       72.710      31.717      53.358
  H       71.542      25.788      51.124
  H       69.467      28.846      51.478
  H       71.155      28.335      48.944
  H       69.099      28.815      47.710
  H       67.564      27.274      49.472
  H       68.690      25.232      48.715
  H       75.928      28.752      54.362
  H       75.443      27.212      53.667
  H       68.375      26.302      47.342
  P       67.454      30.730      48.337
  C       69.041      32.586      49.136
  O       68.682      31.730      48.069
  O       66.567      31.578      49.365
  O       66.714      30.219      47.150
  H       67.078      31.835      50.153
  H       69.943      33.136      48.854
  H       69.248      32.003      50.037
  H       68.236      33.302      49.327
  H       70.021      22.574      46.266
  H       70.116      23.574      47.696
  H       71.542      23.303      46.723

 3  4  5  6  7  8  9  10  11  12  22  25  29  30  31  32 0
 6-311+G(2d,p)
 ****
 33  36  37 0
 6-311+G(2d,p)
 ****
 1  2  13  14  15  16  17  18  19  20  21  23  24  26 0
 3-21G
 ****
 27  28  34  35  38  39  40  41  42  43  44  45  46  47  48 0
 3-21G
 ****


