%nproc=1
%NoSave
%Mem=1900MB
#P OB98/GEN NMR

erre ene a

0 1
  C      457.056     478.014     147.607
  O      457.493     476.751     147.093
  P      457.324     476.478     145.524
  C      455.442     474.695     145.774
  O      455.828     475.966     145.261
  C      454.003     474.355     145.352
  O      453.035     475.229     145.959
  C      453.772     474.460     143.853
  O      454.217     473.301     143.163
  C      452.254     474.574     143.803
  O      451.665     473.253     143.932
  C      451.937     475.413     145.038
  N      448.997     478.970     142.804
  C      448.871     477.624     142.895
  N      449.710     476.736     143.489
  C      450.754     477.381     144.055
  C      450.999     478.742     144.043
  C      450.065     479.563     143.401
  N      450.183     480.940     143.314
  N      452.164     479.042     144.726
  C      452.611     477.863     145.147
  N      451.793     476.825     144.760
  O      458.212     475.168     145.273
  O      457.772     477.612     144.657
  H      450.690     473.365     143.807
  H      458.625     475.212     144.389
  H      447.994     477.197     142.420
  H      453.510     477.703     145.729
  H      451.021     475.084     145.553
  H      451.884     474.981     142.843
  H      454.228     475.385     143.447
  H      453.792     473.316     145.689
  H      455.518     474.677     146.863
  H      449.445     481.454     142.854
  H      450.963     481.380     143.773
  H      456.143     473.918     145.407
  P      455.644     473.364     142.446
  C      454.705     475.008     140.669
  O      455.686     474.762     141.648
  O      455.531     472.266     141.311
  O      456.799     473.113     143.361
  H      456.411     471.875     141.120
  H      454.673     476.079     140.449
  H      453.700     474.697     140.997
  H      454.955     474.471     139.751
  H      457.232     478.050     148.662
  H      456.010     478.135     147.415
  H      457.600     478.801     147.128

 3  4  5  6  7  8  9  10  11  12  22  25  29  30  31  32 0
 6-311+G(2d,p)
 ****
 33  36  37 0
 6-311+G(2d,p)
 ****
 1  2  13  14  15  16  17  18  19  20  21  23  24  26 0
 3-21G
 ****
 27  28  34  35  38  39  40  41  42  43  44  45  46  47  48 0
 3-21G
 ****


