%nproc=1
%NoSave
%Mem=1900MB
#P OB98/GEN NMR

erre ene a

0 1
  C     -892.130    -897.320    -892.970
  O     -891.280    -897.720    -894.010
  P     -892.020    -898.390    -895.270
  C     -891.690    -896.380    -896.880
  O     -892.610    -897.230    -896.210
  C     -892.260    -895.000    -897.230
  O     -893.300    -895.080    -898.200
  C     -892.820    -894.310    -895.940
  O     -892.660    -892.890    -896.040
  C     -894.400    -894.570    -896.090
  O     -895.080    -893.670    -895.310
  C     -894.500    -894.490    -897.620
  N     -895.660    -895.090    -898.100
  C     -896.900    -894.350    -898.010
  O     -896.910    -893.280    -897.460
  N     -898.040    -894.890    -898.540
  C     -898.040    -896.080    -899.110
  N     -899.210    -896.550    -899.580
  C     -896.790    -896.920    -899.130
  C     -895.690    -896.390    -898.660
  O     -893.310    -899.090    -894.660
  O     -891.130    -899.390    -895.980
  H     -894.590    -893.680    -894.340
  H     -893.370    -900.000    -894.980
  H     -896.820    -897.910    -899.570
  H     -894.710    -896.880    -898.660
  H     -894.510    -893.380    -897.950
  H     -894.600    -895.650    -895.760
  H     -892.470    -894.660    -894.980
  H     -891.470    -894.360    -897.590
  H     -900.000    -895.940    -899.550
  H     -891.390    -896.840    -897.860
  H     -899.290    -897.490    -900.000
  H     -890.800    -896.300    -896.270
  P     -891.280    -892.290    -895.320
  C     -890.120    -891.400    -897.450
  O     -890.190    -892.400    -896.480
  O     -890.950    -893.460    -894.350
  O     -891.420    -890.970    -894.680
  H     -890.130    -893.200    -893.840
  H     -889.220    -891.530    -898.120
  H     -890.030    -890.400    -896.980
  H     -891.000    -891.380    -898.130
  H     -891.550    -896.888    -892.181
  H     -892.662    -898.170    -892.597
  H     -892.827    -896.596    -893.337

 3  4  5  6  7  8  9  10  11  12  13  21  23  27  28  29  30  32 0
 6-311+G(2d,p)
 ****
 34  35 0
 6-311+G(2d,p)
 ****
 1  2  14  15  16  17  18  19  20  22  24  25  26 0
 3-21G
 ****
 31  33  36  37  38  39  40  41  42  43  44  45  46 0
 3-21G
 ****


