%nproc=1
%NoSave
%Mem=1900MB
#P OB98/GEN NMR

erre ene a

0 1
  C     -520.147    -695.240    -224.538
  O     -521.173    -695.512    -223.578
  P     -522.096    -694.376    -222.924
  C     -520.632    -694.303    -220.803
  O     -521.251    -693.554    -221.840
  C     -520.052    -693.404    -219.703
  O     -521.142    -692.766    -218.960
  C     -519.171    -694.138    -218.673
  O     -518.087    -693.247    -218.360
  C     -520.123    -694.306    -217.496
  O     -519.471    -694.570    -216.269
  C     -520.846    -692.950    -217.563
  N     -522.065    -692.862    -216.763
  C     -521.939    -692.420    -215.434
  O     -520.838    -692.182    -214.935
  N     -523.077    -692.292    -214.674
  C     -524.236    -692.575    -215.189
  N     -525.328    -692.407    -214.385
  C     -524.415    -693.052    -216.577
  C     -523.302    -693.167    -217.294
  O     -523.396    -694.884    -222.391
  O     -522.351    -693.309    -224.098
  H     -523.253    -692.944    -224.009
  H     -520.151    -694.751    -215.596
  H     -525.402    -693.267    -216.963
  H     -523.343    -693.487    -218.325
  H     -520.156    -692.155    -217.266
  H     -520.791    -695.141    -217.710
  H     -518.756    -695.080    -219.048
  H     -519.489    -692.597    -220.181
  H     -525.167    -692.066    -213.449
  H     -519.811    -694.888    -221.245
  H     -526.278    -692.587    -214.684
  H     -521.364    -695.001    -220.386
  P     -516.601    -693.624    -218.794
  C     -515.575    -694.806    -216.703
  O     -516.174    -694.941    -217.967
  O     -515.738    -692.490    -218.057
  O     -516.317    -693.611    -220.259
  H     -514.896    -692.355    -218.530
  H     -516.033    -695.525    -216.027
  H     -515.709    -693.797    -216.288
  H     -514.507    -695.023    -216.782
  H     -519.673    -696.156    -224.823
  H     -519.421    -694.582    -224.108
  H     -520.579    -694.778    -225.401

 3  4  5  6  7  8  9  10  11  12  13  24  27  28  29  30  32 0
 6-311+G(2d,p)
 ****
 34  35 0
 6-311+G(2d,p)
 ****
 1  2  14  15  16  17  18  19  20  21  22  23  25  26 0
 3-21G
 ****
 31  33  36  37  38  39  40  41  42  43  44  45  46 0
 3-21G
 ****


