%nproc=1
%NoSave
%Mem=1900MB
#P OB98/GEN NMR

erre ene a

0 1
  C     -422.095     342.629     666.430
  O     -421.580     343.888     666.852
  P     -419.989     344.092     666.816
  C     -420.446     346.515     665.931
  O     -419.752     345.677     666.844
  C     -420.759     347.873     666.576
  O     -421.781     347.716     667.597
  C     -419.572     348.501     667.291
  O     -418.643     349.042     666.367
  C     -420.276     349.518     668.164
  O     -420.616     350.693     667.410
  C     -421.563     348.768     668.562
  N     -421.535     348.235     669.925
  C     -421.962     349.117     670.931
  O     -422.327     350.269     670.698
  N     -421.940     348.626     672.202
  C     -421.518     347.381     672.573
  O     -421.536     346.986     673.730
  C     -421.031     346.518     671.479
  C     -421.062     346.977     670.226
  O     -419.662     343.670     665.309
  O     -419.276     343.310     667.865
  H     -420.365     343.921     664.677
  H     -420.880     351.371     668.059
  H     -422.268     349.236     672.939
  H     -420.661     345.534     671.741
  H     -420.694     346.364     669.401
  H     -422.430     349.438     668.476
  H     -419.658     349.837     669.022
  H     -419.064     347.758     667.918
  H     -421.139     348.537     665.803
  H     -421.383     346.046     665.616
  H     -419.836     346.641     665.029
  P     -417.249     348.251     666.191
  C     -416.659     350.213     664.552
  O     -416.217     349.308     665.539
  O     -417.605     347.270     664.985
  O     -416.782     347.588     667.434
  H     -418.094     347.693     664.263
  H     -415.942     351.040     664.493
  H     -417.640     350.621     664.795
  H     -416.698     349.714     663.575
  H     -423.162     342.636     666.507
  H     -421.698     341.855     667.053
  H     -421.812     342.450     665.414

 3  4  5  6  7  8  9  10  11  12  13  24  28  29  30  31  32 0
 6-311+G(2d,p)
 ****
 33  34 0
 6-311+G(2d,p)
 ****
 1  2  14  15  16  17  18  19  20  21  22  23  25  26  27 0
 3-21G
 ****
 35  36  37  38  39  40  41  42  43  44  45 0
 3-21G
 ****


