%nproc=1
%NoSave
%Mem=1900MB
#P OB98/GEN NMR

erre ene a

0 1
  C       13.874     -55.110    -402.640
  O       14.956     -55.950    -402.273
  P       15.277     -56.261    -400.728
  C       15.452     -54.643    -398.722
  O       15.712     -54.852    -400.104
  C       15.841     -53.219    -398.327
  O       15.309     -52.288    -399.292
  C       15.308     -52.769    -396.977
  O       16.061     -53.340    -395.914
  C       15.413     -51.255    -397.115
  O       16.763     -50.822    -396.883
  C       15.040     -51.045    -398.595
  N       13.654     -50.624    -398.781
  C       13.332     -49.335    -398.343
  O       14.179     -48.602    -397.844
  N       12.045     -48.886    -398.524
  C       11.154     -49.666    -399.064
  N        9.911     -49.143    -399.274
  C       11.439     -51.047    -399.486
  C       12.701     -51.456    -399.324
  O       16.248     -57.366    -400.502
  O       13.848     -56.511    -400.064
  H       17.308     -51.186    -397.609
  H       13.546     -57.454    -400.112
  H       10.661     -51.661    -399.921
  H       12.997     -52.452    -399.627
  H       15.702     -50.297    -399.048
  H       14.763     -50.707    -396.420
  H       14.251     -53.060    -396.862
  H       16.938     -53.146    -398.352
  H        9.811     -48.144    -399.134
  H       16.049     -55.351    -398.141
  H        9.268     -49.561    -399.934
  H       14.391     -54.828    -398.522
  P       15.285     -53.670    -394.550
  C       14.169     -52.129    -392.783
  O       15.188     -52.273    -393.752
  O       16.347     -54.532    -393.720
  O       13.990     -54.390    -394.738
  H       16.129     -55.483    -393.778
  H       14.384     -51.248    -392.175
  H       14.132     -53.004    -392.125
  H       13.200     -51.992    -393.272
  H       13.830     -55.031    -403.706
  H       14.017     -54.138    -402.216
  H       12.959     -55.527    -402.275

 3  4  5  6  7  8  9  10  11  12  13  23  27  28  29  30  32 0
 6-311+G(2d,p)
 ****
 34  35 0
 6-311+G(2d,p)
 ****
 1  2  14  15  16  17  18  19  20  21  22  24  25  26 0
 3-21G
 ****
 31  33  36  37  38  39  40  41  42  43  44  45  46 0
 3-21G
 ****


