%nproc=1
%NoSave
%Mem=1900MB
#P OB98/GEN NMR

erre ene a

0 1
  C      -84.396    -866.560     102.568
  O      -84.935    -866.773     103.858
  P      -84.311    -867.903     104.809
  C      -84.644    -870.466     105.094
  O      -84.976    -869.294     104.388
  C      -84.899    -871.718     104.246
  O      -83.894    -871.766     103.203
  C      -84.770    -873.047     105.000
  O      -85.427    -874.061     104.253
  C      -83.278    -873.271     104.977
  O      -82.929    -874.638     105.211
  C      -82.861    -872.712     103.581
  N      -81.547    -872.055     103.628
  C      -80.432    -872.883     103.549
  O      -80.515    -874.101     103.381
  N      -79.226    -872.283     103.766
  C      -79.052    -870.972     104.084
  O      -78.022    -870.516     104.578
  C      -80.224    -870.097     103.913
  C      -81.421    -870.670     103.721
  O      -84.975    -867.561     106.235
  O      -82.821    -867.904     104.886
  H      -83.211    -875.146     104.415
  H      -84.371    -867.031     106.774
  H      -78.430    -872.901     103.857
  H      -80.098    -869.024     104.015
  H      -82.318    -870.074     103.641
  H      -82.823    -873.513     102.828
  H      -82.805    -872.676     105.767
  H      -85.164    -873.013     106.028
  H      -85.882    -871.648     103.772
  H      -85.218    -870.500     106.022
  H      -83.582    -870.440     105.385
  P      -86.741    -874.741     104.880
  C      -87.235    -876.194     106.938
  O      -86.227    -875.628     106.136
  O      -87.644    -875.440     103.934
  O      -87.464    -873.507     105.600
  H      -88.404    -873.723     105.765
  H      -86.839    -877.125     107.376
  H      -88.149    -876.430     106.360
  H      -87.489    -875.503     107.753
  H      -84.934    -865.773     102.082
  H      -84.481    -867.458     101.993
  H      -83.365    -866.287     102.653

 3  4  5  6  7  8  9  10  11  12  13  23  28  29  30  31  32 0
 6-311+G(2d,p)
 ****
 33  34 0
 6-311+G(2d,p)
 ****
 1  2  14  15  16  17  18  19  20  21  22  24  25  26  27 0
 3-21G
 ****
 35  36  37  38  39  40  41  42  43  44  45 0
 3-21G
 ****


