%nproc=1
%NoSave
%Mem=1900MB
#P OB98/GEN NMR

erre ene a

0 1
  C      516.042    -894.624     -35.243
  O      515.797    -893.296     -34.772
  P      516.659    -892.563     -33.642
  C      517.745    -890.627     -35.024
  O      517.904    -891.856     -34.345
  C      517.638    -890.778     -36.557
  O      516.441    -891.547     -36.881
  C      517.472    -889.422     -37.224
  O      518.612    -888.630     -37.507
  C      516.591    -889.693     -38.438
  O      517.347    -889.929     -39.624
  C      515.820    -890.964     -38.037
  N      511.022    -891.075     -39.815
  C      512.202    -891.369     -40.471
  N      512.109    -891.688     -41.773
  N      513.385    -891.338     -39.900
  C      513.344    -890.915     -38.606
  C      512.237    -890.581     -37.857
  C      510.930    -890.674     -38.487
  O      509.861    -890.438     -37.951
  N      512.595    -890.180     -36.594
  C      513.907    -890.256     -36.588
  N      514.412    -890.702     -37.787
  O      516.937    -893.371     -32.415
  O      515.720    -891.326     -33.205
  H      516.829    -890.510     -40.208
  H      515.886    -891.174     -32.250
  H      510.145    -891.137     -40.297
  H      514.538    -890.004     -35.750
  H      515.869    -891.715     -38.830
  H      515.944    -888.836     -38.647
  H      511.255    -891.612     -42.308
  H      516.855    -888.808     -36.558
  H      512.984    -891.690     -42.314
  H      518.481    -891.364     -36.948
  H      518.605    -890.002     -34.768
  H      516.868    -890.099     -34.644
  P      519.079    -887.331     -36.700
  C      521.596    -887.850     -36.626
  O      520.396    -887.713     -35.872
  O      517.976    -887.156     -35.554
  O      519.196    -886.086     -37.532
  H      518.017    -886.249     -35.184
  H      522.327    -888.395     -36.029
  H      522.000    -886.857     -36.856
  H      521.415    -888.399     -37.561
  H      515.325    -894.873     -35.997
  H      515.957    -895.313     -34.429
  H      517.028    -894.680     -35.656

 3  4  5  6  7  8  9  10  11  12  23  26  30  31 0
 6-311+G(2d,p)
 ****
 33  35  36  37  38 0
 6-311+G(2d,p)
 ****
 1  2  13  14  15  16  17  18  19  20  21  22  24  25 0
 3-21G
 ****
 27  28  29  32  34  39  40  41  42  43  44  45  46  47  48  49 0
 3-21G
 ****


