%nproc=1
%NoSave
%Mem=1900MB
#P OB98/GEN NMR

erre ene a

0 1
  C     -273.464    -893.670     369.166
  O     -273.569    -895.050     369.475
  H     -272.414    -893.390     369.061
  H     -273.978    -893.490     368.220
  H     -273.934    -893.070     369.949
  P     -272.888    -895.540     370.842
  C     -270.423    -895.830     371.610
  O     -271.318    -895.680     370.520
  C     -269.000    -895.520     371.149
  O     -268.847    -894.100     370.907
  C     -267.917    -895.880     372.165
  O     -267.585    -897.260     372.134
  C     -266.766    -895.030     371.658
  O     -266.176    -895.650     370.503
  C     -267.488    -893.730     371.251
  N     -264.678    -890.510     374.060
  C     -264.339    -891.390     373.093
  N     -265.146    -892.210     372.397
  C     -266.428    -892.070     372.785
  C     -266.917    -891.220     373.764
  C     -265.976    -890.410     374.419
  N     -266.320    -889.510     375.415
  N     -268.282    -891.380     373.915
  C     -268.606    -892.280     373.009
  N     -267.522    -892.740     372.315
  O     -273.367    -897.060     370.978
  O     -273.206    -894.730     372.056
  H     -265.927    -896.560     370.769
  H     -273.289    -897.360     371.904
  H     -263.286    -891.440     372.849
  H     -269.615    -892.650     372.827
  H     -267.038    -893.260     370.370
  H     -265.974    -894.900     372.392
  H     -268.187    -895.550     373.174
  H     -268.825    -896.040     370.199
  H     -270.470    -896.860     371.980
  H     -265.557    -889.120     375.939
  H     -267.256    -889.540     375.787
  H     -270.714    -895.140     372.417
  P     -267.263    -897.970     373.538
  C     -265.897    -897.230     375.624
  O     -266.124    -897.090     374.226
  O     -266.489    -899.290     373.095
  O     -268.458    -898.260     374.385
  H     -266.598    -900.000     373.769
  H     -265.106    -896.575     375.924
  H     -265.624    -898.241     375.841
  H     -266.790    -896.979     376.157

 6  7  8  9  10  11  12  13  14  15  25  28  32  33  34  35 0
 6-311+G(2d,p)
 ****
 36  39  40 0
 6-311+G(2d,p)
 ****
 1  2  3  4  5  16  17  18  19  20  21  22  23  24 0
 3-21G
 ****
 26  27  29  30  31  37  38  41  42  43  44  45  46  47 0
 3-21G
 ****
 48 0
 3-21G
 ****


