%nproc=1
%NoSave
%Mem=1900MB
#P OB98/GEN NMR

erre ene a

0 1
  C     -109.809    -437.140      94.117
  O     -108.868    -436.104      94.339
  H     -109.277    -438.016      93.724
  H     -110.556    -436.820      93.391
  H     -110.290    -437.421      95.060
  P     -109.440    -434.726      94.922
  C     -109.475    -433.661      92.547
  O     -110.226    -434.010      93.702
  C     -110.331    -432.852      91.578
  O     -110.747    -431.615      92.239
  C     -109.621    -432.451      90.283
  O     -110.543    -432.524      89.194
  C     -109.237    -431.001      90.510
  O     -109.031    -430.290      89.307
  C     -110.439    -430.533      91.336
  N     -111.964    -427.580      95.132
  C     -112.453    -428.798      94.684
  N     -113.510    -429.304      95.340
  N     -111.942    -429.466      93.670
  C     -110.865    -428.849      93.118
  C     -110.293    -427.645      93.460
  C     -110.870    -426.906      94.571
  O     -110.491    -425.830      95.004
  N     -109.231    -427.349      92.632
  C     -109.159    -428.373      91.787
  N     -110.147    -429.303      92.051
  O     -108.125    -433.821      95.082
  O     -110.218    -434.831      96.188
  H     -109.894    -430.205      88.850
  H     -108.228    -433.187      95.818
  H     -112.404    -427.122      95.901
  H     -108.455    -428.491      90.987
  H     -111.319    -430.327      90.719
  H     -108.317    -430.948      91.111
  H     -113.947    -428.872      96.154
  H     -108.749    -433.088      90.062
  H     -113.891    -430.205      95.030
  H     -111.251    -433.411      91.368
  H     -109.129    -434.575      92.053
  H     -108.599    -433.069      92.845
  P     -110.618    -433.893      88.370
  C     -109.430    -433.150      86.176
  O     -109.375    -433.945      87.337
  O     -111.894    -433.660      87.398
  O     -110.814    -435.109      89.213
  H     -112.637    -434.196      87.691
  H     -108.539    -433.296      85.601
  H     -109.511    -432.120      86.453
  H     -110.281    -433.430      85.592

 6  7  8  9  10  11  12  13  14  15  26  29  33  34 0
 6-311+G(2d,p)
 ****
 36  38  39  40  41 0
 6-311+G(2d,p)
 ****
 1  2  3  4  5  16  17  18  19  20  21  22  23  24  25 0
 3-21G
 ****
 27  28  30  31  32  35  37  42  43  44  45  46  47 0
 3-21G
 ****
 48  49 0
 3-21G
 ****


