%nproc=1
%NoSave
%Mem=1900MB
#P OB98/GEN NMR

erre ene a

0 1
  C      545.378    -703.618    -704.868
  O      545.497    -702.233    -704.576
  P      546.413    -701.809    -703.312
  C      546.933    -699.429    -704.230
  O      546.341    -700.207    -703.199
  C      546.710    -697.938    -703.995
  O      545.330    -697.605    -704.351
  C      546.916    -697.477    -702.539
  O      547.464    -696.161    -702.592
  C      545.511    -697.471    -701.994
  O      545.341    -696.734    -700.787
  C      544.756    -696.933    -703.205
  N      540.436    -695.927    -700.615
  C      541.714    -695.467    -700.468
  N      542.802    -695.776    -701.199
  C      542.479    -696.645    -702.179
  C      541.256    -697.216    -702.435
  C      540.189    -696.814    -701.597
  N      538.898    -697.289    -701.742
  N      541.320    -698.072    -703.523
  C      542.589    -698.052    -703.891
  N      543.310    -697.190    -703.129
  O      547.910    -702.072    -703.837
  O      546.120    -702.552    -702.047
  H      544.435    -696.832    -700.458
  H      548.467    -702.446    -703.139
  H      541.877    -694.763    -699.654
  H      543.008    -698.640    -704.694
  H      544.898    -695.855    -703.338
  H      545.197    -698.489    -701.765
  H      547.611    -698.129    -701.982
  H      547.374    -697.377    -704.679
  H      546.482    -699.701    -705.193
  H      538.272    -697.115    -700.981
  H      538.778    -698.094    -702.348
  H      548.013    -699.669    -704.296
  P      549.040    -695.962    -702.367
  C      548.792    -693.911    -703.930
  O      549.300    -694.382    -702.690
  O      549.645    -696.640    -703.700
  O      549.606    -696.476    -701.086
  H      549.197    -696.312    -704.504
  H      548.927    -692.820    -703.968
  H      547.728    -694.141    -704.023
  H      549.348    -694.381    -704.764
  H      544.748    -703.749    -705.723
  H      544.950    -704.124    -704.028
  H      546.347    -704.024    -705.074

 3  4  5  6  7  8  9  10  11  12  22  25  29  30  31  32 0
 6-311+G(2d,p)
 ****
 33  36  37 0
 6-311+G(2d,p)
 ****
 1  2  13  14  15  16  17  18  19  20  21  23  24  26 0
 3-21G
 ****
 27  28  34  35  38  39  40  41  42  43  44  45  46  47  48 0
 3-21G
 ****


