%nproc=1
%NoSave
%Mem=1900MB
#P OB98/GEN NMR

erre ene a

0 1
  C     -259.975    -328.353    -410.848
  O     -259.515    -328.749    -412.140
  P     -258.161    -328.252    -412.826
  C     -257.401    -326.199    -414.287
  O     -258.442    -326.870    -413.581
  C     -257.691    -324.688    -414.391
  O     -258.844    -324.501    -415.273
  C     -258.063    -324.057    -413.031
  O     -257.464    -322.776    -412.828
  C     -259.581    -324.124    -413.036
  O     -260.176    -323.219    -412.107
  C     -259.913    -323.895    -414.512
  N     -264.865    -323.039    -415.453
  C     -263.904    -322.177    -414.924
  N     -264.324    -320.946    -414.585
  N     -262.663    -322.525    -414.724
  C     -262.397    -323.813    -415.033
  C     -263.261    -324.759    -415.550
  C     -264.628    -324.354    -415.810
  O     -265.505    -325.073    -416.286
  N     -262.624    -325.960    -415.739
  C     -261.388    -325.760    -415.331
  N     -261.202    -324.463    -414.887
  O     -257.397    -329.292    -413.589
  O     -257.244    -327.810    -411.573
  H     -261.130    -323.428    -412.054
  H     -256.317    -327.992    -411.835
  H     -265.805    -322.707    -415.603
  H     -260.594    -326.488    -415.331
  H     -259.970    -322.843    -414.763
  H     -259.868    -325.136    -412.722
  H     -265.307    -320.651    -414.597
  H     -257.672    -324.672    -412.208
  H     -263.686    -320.397    -414.001
  H     -256.828    -324.198    -414.850
  H     -257.373    -326.643    -415.283
  H     -256.435    -326.378    -413.813
  P     -256.410    -322.335    -411.701
  C     -256.399    -321.085    -409.468
  O     -257.189    -321.592    -410.525
  O     -255.561    -321.157    -412.383
  O     -255.496    -323.441    -411.245
  H     -254.609    -321.423    -412.443
  H     -257.058    -320.841    -408.623
  H     -255.899    -320.173    -409.802
  H     -255.661    -321.815    -409.150
  H     -260.907    -328.835    -410.638
  H     -260.110    -327.292    -410.827
  H     -259.253    -328.636    -410.110

 3  4  5  6  7  8  9  10  11  12  23  26  30  31 0
 6-311+G(2d,p)
 ****
 33  35  36  37  38 0
 6-311+G(2d,p)
 ****
 1  2  13  14  15  16  17  18  19  20  21  22  24  25 0
 3-21G
 ****
 27  28  29  32  34  39  40  41  42  43  44  45  46  47  48  49 0
 3-21G
 ****


