%nproc=1
%NoSave
%Mem=1900MB
#P OB98/GEN NMR

erre ene a

0 1
  C     -297.712     229.047     -28.597
  O     -298.318     229.996     -29.454
  H     -297.642     228.090     -29.124
  H     -298.319     228.914     -27.698
  H     -296.705     229.374     -28.321
  P     -298.474     231.484     -28.874
  C     -300.826     231.812     -27.790
  O     -299.484     231.368     -27.631
  C     -301.371     232.341     -26.457
  O     -301.525     231.212     -25.542
  C     -300.438     233.349     -25.765
  O     -301.241     234.260     -24.997
  C     -299.656     232.456     -24.820
  O     -299.015     233.220     -23.828
  C     -300.776     231.528     -24.353
  N     -299.601     229.388     -19.875
  C     -300.143     230.585     -20.190
  N     -300.436     231.079     -21.410
  C     -300.134     230.181     -22.365
  C     -299.571     228.928     -22.203
  C     -299.295     228.532     -20.885
  N     -298.721     227.326     -20.561
  N     -299.386     228.315     -23.429
  C     -299.829     229.185     -24.316
  N     -300.293     230.326     -23.719
  O     -299.341     232.223     -30.001
  O     -297.200     232.200     -28.583
  H     -298.709     232.657     -23.091
  H     -298.747     232.668     -30.638
  H     -300.373     231.230     -19.347
  H     -299.835     229.051     -25.389
  H     -301.455     232.026     -23.646
  H     -298.879     231.893     -25.354
  H     -299.812     233.912     -26.465
  H     -302.368     232.761     -26.618
  H     -301.431     230.971     -28.136
  H     -300.854     232.614     -28.538
  H     -298.526     227.129     -19.590
  H     -298.455     226.690     -21.303
  P     -301.941     235.506     -25.742
  C     -300.161     237.226     -24.913
  O     -300.872     236.670     -26.007
  O     -302.835     236.132     -24.563
  O     -302.804     235.151     -26.908
  H     -303.734     236.329     -24.899
  H     -299.495     237.984     -25.269
  H     -299.599     236.457     -24.425
  H     -300.853     237.656     -24.219

 6  7  8  9  10  11  12  13  14  15  25  28  32  33  34  35 0
 6-311+G(2d,p)
 ****
 36  37  40 0
 6-311+G(2d,p)
 ****
 1  2  3  4  5  16  17  18  19  20  21  22  23  24 0
 3-21G
 ****
 26  27  29  30  31  38  39 41  42  43  44  45  46  47  48 0
 3-21G
 ****


