%nproc=1
%NoSave
%Mem=1900MB
#P OB98/GEN NMR

erre ene a

0 1
  C     -197.381     -78.075    -492.695
  O     -197.979     -79.323    -492.988
  H     -197.636     -77.369    -493.489
  H     -196.294     -78.179    -492.651
  H     -197.758     -77.690    -491.743
  P     -197.739     -80.501    -491.926
  C     -198.921     -79.259    -489.971
  O     -197.712     -79.808    -490.480
  C     -199.598     -80.268    -489.051
  O     -200.002     -81.431    -489.811
  C     -198.692     -80.801    -487.949
  O     -198.557     -79.891    -486.872
  C     -199.416     -82.084    -487.569
  O     -200.486     -81.831    -486.649
  C     -199.974     -82.566    -488.914
  N     -199.865     -87.561    -489.954
  C     -200.836     -86.764    -489.459
  N     -200.790     -85.437    -489.221
  C     -199.596     -84.931    -489.582
  C     -198.515     -85.619    -490.102
  C     -198.680     -87.003    -490.293
  N     -197.682     -87.820    -490.774
  N     -197.449     -84.766    -490.309
  C     -197.882     -83.581    -489.926
  N     -199.175     -83.633    -489.484
  O     -196.214     -80.912    -492.181
  O     -198.660     -81.668    -492.056
  H     -200.868     -82.705    -486.429
  H     -196.181     -81.717    -492.733
  H     -201.769     -87.260    -489.209
  H     -197.301     -82.667    -489.944
  H     -201.001     -82.938    -488.828
  H     -198.732     -82.792    -487.098
  H     -197.711     -81.059    -488.360
  H     -200.499     -79.809    -488.627
  H     -199.592     -79.023    -490.805
  H     -198.690     -78.336    -489.428
  H     -197.850     -88.811    -490.821
  H     -196.759     -87.430    -490.922
  P     -197.350     -80.124    -485.845
  C     -195.419     -79.158    -487.308
  O     -196.014     -80.302    -486.713
  O     -197.623     -81.589    -485.260
  O     -197.249     -79.105    -484.761
  H     -197.356     -81.626    -484.320
  H     -194.543     -79.451    -487.847
  H     -195.150     -78.458    -486.545
  H     -196.116     -78.703    -487.980

 6  7  8  9  10  11  12  13  14  15  25  28  32  33  34  35 0
 6-311+G(2d,p)
 ****
 36  37  40 0
 6-311+G(2d,p)
 ****
 1  2  3  4  5  16  17  18  19  20  21  22  23  24 0
 3-21G
 ****
 26  27  29  30  31  38  39 41  42  43  44  45  46  47  48 0
 3-21G
 ****


