%nproc=1
%NoSave
%Mem=1900MB
#P OB98/GEN NMR

erre ene a

0 1
  C       15.806       1.185       1.695
  O       16.463      -0.068       1.475
  P       15.672      -1.463       1.557
  C       14.999      -2.096      -0.838
  O       15.919      -2.328       0.223
  C       15.640      -2.216      -2.229
  O       16.714      -1.250      -2.392
  C       16.235      -3.593      -2.551
  O       16.090      -3.765      -3.962
  C       17.696      -3.403      -2.183
  O       18.558      -4.368      -2.768
  C       17.923      -1.978      -2.677
  N       23.020      -2.029      -2.191
  C       22.195      -2.667      -3.047
  N       20.854      -2.574      -3.139
  C       20.372      -1.686      -2.256
  C       21.092      -0.953      -1.326
  C       22.482      -1.160      -1.303
  N       23.324      -0.549      -0.403
  N       20.251      -0.165      -0.565
  C       19.044      -0.429      -1.022
  N       19.063      -1.339      -2.047
  O       14.232      -1.330       1.935
  O       16.455      -2.292       2.682
  H       18.373      -5.232      -2.358
  H       15.807      -2.700       3.287
  H       22.674      -3.347      -3.746
  H       18.123      -0.010      -0.637
  H       18.081      -1.952      -3.761
  H       17.806      -3.477      -1.094
  H       15.760      -4.412      -2.005
  H       14.873      -1.953      -2.968
  H       14.577      -1.092      -0.720
  H       24.292      -0.832      -0.404
  H       22.928       0.000       0.345
  H       14.176      -2.815      -0.753
  P       15.968      -5.217      -4.625
  C       13.657      -6.258      -4.291
  O       14.445      -5.389      -5.083
  O       16.501      -6.335      -3.792
  O       16.759      -5.093      -6.014
  H       16.995      -5.984      -6.334
  H       13.904      -7.296      -4.528
  H       12.601      -6.084      -4.513
  H       13.828      -6.079      -3.225
  H       16.513       1.981       1.593
  H       15.390       1.201       2.681
  H       15.024       1.309       0.976

 3  4  5  6  7  8  9  10  11  12  22  25  29  30  31  32 0
 6-311+G(2d,p)
 ****
 33  36  37 0
 6-311+G(2d,p)
 ****
 1  2  13  14  15  16  17  18  19  20  21  23  24  26 0
 3-21G
 ****
 27  28  34  35  38  39  40  41  42  43  44  45  46  47  48 0
 3-21G
 ****


