%nproc=1
%NoSave
%Mem=1900MB
#P OB98/GEN NMR

erre ene a

0 1
  C     -146.301      -2.537     690.701
  O     -146.719      -2.325     692.054
  P     -147.757      -3.391     692.664
  C     -145.958      -4.461     694.217
  O     -146.907      -4.654     693.166
  C     -144.965      -5.623     694.265
  O     -144.431      -5.902     692.958
  C     -143.748      -5.364     695.138
  O     -144.038      -5.564     696.518
  C     -142.787      -6.428     694.634
  O     -143.078      -7.686     695.265
  C     -143.121      -6.493     693.135
  N     -138.773      -6.786     690.542
  C     -139.431      -7.748     691.276
  N     -138.862      -8.971     691.306
  N     -140.543      -7.537     691.925
  C     -141.009      -6.269     691.788
  C     -140.451      -5.224     691.088
  C     -139.202      -5.468     690.396
  O     -138.561      -4.638     689.755
  N     -141.224      -4.095     691.164
  C     -142.267      -4.460     691.892
  N     -142.174      -5.765     692.303
  O     -148.504      -3.951     691.356
  O     -148.715      -2.815     693.651
  H     -142.841      -7.595     696.210
  H     -149.398      -4.265     691.592
  H     -137.914      -7.002     690.062
  H     -143.101      -3.822     692.141
  H     -143.175      -7.525     692.768
  H     -141.740      -6.197     694.856
  H     -138.044      -9.230     690.772
  H     -143.333      -4.364     694.949
  H     -139.356      -9.707     691.814
  H     -145.500      -6.516     694.625
  H     -146.481      -4.391     695.177
  H     -145.447      -3.509     694.060
  P     -144.689      -4.328     697.316
  C     -146.943      -5.572     697.630
  O     -146.271      -4.452     697.091
  O     -144.264      -3.061     696.430
  O     -144.233      -4.204     698.728
  H     -144.190      -2.270     696.994
  H     -146.597      -5.793     698.647
  H     -146.777      -6.445     696.989
  H     -148.012      -5.358     697.663
  H     -145.616      -1.766     690.414
  H     -147.155      -2.513     690.056
  H     -145.820      -3.489     690.621

 3  4  5  6  7  8  9  10  11  12  23  26  30  31  33  0
 6-311+G(2d,p)
 ****
 35  36  37  38 0
 6-311+G(2d,p)
 ****
 1  2  13  14  15  16  17  18  19  20  21  22  24  25  27  28  29 0
 3-21G
 ****
 32  34  39  40  41  42  43  44  45  46  47  48  49 0
 3-21G
 ****


