%nproc=1
%NoSave
%Mem=1900MB
#P OB98/GEN NMR

erre ene a

0 1
  C     -589.708      38.246     496.257
  O     -590.660      37.655     495.399
  H     -589.603      39.296     495.985
  H     -588.744      37.748     496.138
  H     -590.027      38.180     497.301
  P     -591.253      36.215     495.773
  C     -591.100      35.675     493.248
  O     -591.883      35.604     494.430
  C     -591.972      35.497     492.000
  O     -592.513      34.146     491.994
  C     -593.164      36.457     492.010
  O     -593.604      36.772     490.686
  C     -594.244      35.642     492.696
  O     -595.570      36.086     492.385
  C     -593.930      34.234     492.196
  N     -596.814      30.079     492.891
  C     -596.813      30.976     491.843
  N     -597.703      30.733     490.842
  N     -596.042      32.028     491.786
  C     -595.261      32.182     492.886
  C     -595.180      31.375     493.996
  C     -596.022      30.200     494.028
  O     -596.076      29.374     494.944
  N     -594.279      31.861     494.911
  C     -593.817      32.964     494.356
  N     -594.359      33.188     493.120
  O     -592.551      36.553     496.644
  O     -590.316      35.303     496.509
  H     -595.635      36.161     491.412
  H     -592.789      35.797     497.210
  H     -597.410      29.268     492.869
  H     -593.075      33.619     494.800
  H     -594.423      34.045     491.235
  H     -594.121      35.752     493.777
  H     -598.440      30.057     490.947
  H     -592.966      37.377     492.549
  H     -597.933      31.529     490.243
  H     -591.360      35.594     491.093
  H     -590.347      34.882     493.316
  H     -590.562      36.632     493.209
  P     -593.187      38.196     490.065
  C     -595.471      38.999     488.995
  O     -594.142      38.552     488.832
  O     -591.773      37.912     489.380
  O     -593.115      39.311     491.067
  H     -591.068      38.425     489.827
  H     -595.909      39.173     488.034
  H     -595.475      39.909     489.558
  H     -596.036      38.255     489.516

 6  7  8  9  10  11  12  13  14  15  26  29  33  34 0
 6-311+G(2d,p)
 ****
 36  38  39  40  41 0
 6-311+G(2d,p)
 ****
 1  2  3  4  5  16  17  18  19  20  21  22  23  24  25 0
 3-21G
 ****
 27  28  30  31  32  35  37  42  43  44  45  46  47 0
 3-21G
 ****
 48  49 0
 3-21G
 ****


