%nproc=1
%NoSave
%Mem=1900MB
#P OB98/GEN NMR

erre ene a

0 1
  C      449.389     -30.979    -895.610
  O      450.701     -31.398    -895.940
  H      448.878     -31.758    -895.040
  H      449.450     -30.076    -895.000
  H      448.822     -30.759    -896.520
  P      450.838     -32.719    -896.840
  C      450.732     -34.097    -894.640
  O      451.408     -33.860    -895.870
  C      451.361     -35.290    -893.930
  O      450.982     -36.523    -894.580
  C      452.893     -35.276    -893.920
  O      453.415     -34.440    -892.910
  C      453.173     -36.738    -893.630
  O      452.961     -37.008    -892.230
  C      452.098     -37.442    -894.470
  N      453.751     -41.266    -897.450
  C      453.406     -41.217    -896.150
  N      452.978     -40.169    -895.430
  C      452.928     -39.063    -896.190
  C      453.264     -38.946    -897.530
  C      453.685     -40.126    -898.170
  N      454.056     -40.167    -899.500
  N      453.119     -37.648    -897.960
  C      452.676     -36.984    -896.910
  N      452.557     -37.798    -895.810
  O      452.084     -32.393    -897.790
  O      449.616     -33.107    -897.610
  H      452.028     -36.817    -892.050
  H      452.059     -32.966    -898.590
  H      453.474     -42.165    -895.610
  H      452.429     -35.937    -896.880
  H      451.726     -38.359    -894.000
  H      454.200     -37.033    -893.860
  H      453.292     -35.013    -894.910
  H      450.969     -35.318    -892.900
  H      449.678     -34.313    -894.850
  H      454.521     -41.009    -899.810
  H      454.156     -39.291    -900.000
  H      450.792     -33.197    -894.020
  P      454.823     -33.728    -893.200
  C      456.160     -35.801    -892.390
  O      455.880     -34.415    -892.210
  O      454.625     -32.263    -892.570
  O      455.211     -33.671    -894.640
  H      455.198     -31.613    -893.010
  H      456.878     -36.117    -891.662
  H      456.553     -35.961    -893.372
  H      455.259     -36.365    -892.271

 6  7  8  9  10  11  12  13  14  15  25  28  32  33  34  35 0
 6-311+G(2d,p)
 ****
 36  39  40 0
 6-311+G(2d,p)
 ****
 1  2  3  4  5  16  17  18  19  20  21  22  23  24 0
 3-21G
 ****
 26  27  29  30  31  37  38  41  42  43  44  45  46  47 0
 3-21G
 ****
 48 0
 3-21G
 ****


