%nproc=1
%NoSave
%Mem=1900MB
#P OB98/GEN NMR

erre ene a

0 1
  C     1519.535    -163.007     494.154
  O     1519.038    -163.112     492.839
  H     1518.865    -162.418     494.774
  H     1519.627    -164.013     494.584
  H     1520.528    -162.543     494.136
  P     1518.788    -161.742     492.042
  C     1516.364    -162.574     491.651
  O     1517.515    -161.969     491.088
  C     1515.158    -162.362     490.740
  O     1514.863    -160.944     490.689
  C     1515.369    -162.848     489.294
  O     1514.356    -163.811     488.962
  C     1515.138    -161.616     488.422
  O     1514.414    -161.883     487.237
  C     1514.404    -160.657     489.372
  N     1513.788    -157.199     485.681
  C     1513.134    -158.350     485.936
  N     1513.269    -159.184     486.988
  C     1514.187    -158.692     487.866
  C     1514.888    -157.505     487.745
  C     1514.687    -156.744     486.596
  N     1515.382    -155.589     486.317
  N     1515.735    -157.350     488.844
  C     1515.547    -158.426     489.569
  N     1514.641    -159.274     489.005
  O     1520.022    -161.678     491.023
  O     1518.719    -160.515     492.904
  H     1513.649    -162.438     487.509
  H     1520.433    -160.801     491.065
  H     1512.423    -158.663     485.177
  H     1516.077    -158.677     490.477
  H     1513.304    -160.839     489.342
  H     1516.136    -161.193     488.156
  H     1516.361    -163.279     489.120
  H     1514.288    -162.848     491.181
  H     1516.151    -162.111     492.627
  H     1515.249    -155.185     485.399
  H     1516.136    -155.323     486.926
  H     1516.558    -163.650     491.801
  P     1514.786    -165.360     489.056
  C     1514.476    -166.000     486.549
  O     1514.019    -166.154     487.892
  O     1514.026    -165.869     490.384
  O     1516.250    -165.576     489.130
  H     1514.501    -166.600     490.794
  H     1513.867    -166.588     485.895
  H     1515.493    -166.326     486.479
  H     1514.411    -164.970     486.266

 6  7  8  9  10  11  12  13  14  15  25  28  32  33  34  35 0
 6-311+G(2d,p)
 ****
 36  39  40 0
 6-311+G(2d,p)
 ****
 1  2  3  4  5  16  17  18  19  20  21  22  23  24 0
 3-21G
 ****
 26  27  29  30  31  37  38  41  42  43  44  45  46  47  48 0
 3-21G
 ****


