%nproc=1
%NoSave
%Mem=1900MB
#P OB98/GEN NMR

erre ene a

0 1
  C      329.341    -331.101    -456.166
  O      330.356    -332.076    -456.418
  P      330.782    -333.088    -455.247
  C      330.709    -335.316    -456.534
  O      331.532    -334.350    -455.901
  C      331.521    -336.142    -457.548
  O      331.814    -335.349    -458.733
  C      332.866    -336.614    -456.972
  O      333.228    -337.890    -457.526
  C      333.845    -335.583    -457.520
  O      335.185    -336.073    -457.520
  C      333.248    -335.331    -458.907
  N      336.416    -333.118    -462.274
  C      336.179    -334.413    -461.988
  N      335.306    -334.926    -461.088
  C      334.625    -333.953    -460.469
  C      334.758    -332.580    -460.663
  C      335.714    -332.163    -461.612
  N      335.978    -330.842    -461.883
  N      333.897    -331.879    -459.851
  C      333.291    -332.814    -459.128
  N      333.673    -334.075    -459.492
  O      329.706    -333.419    -454.264
  O      331.990    -332.297    -454.534
  H      335.755    -335.354    -457.847
  H      331.901    -332.396    -453.560
  H      336.773    -335.132    -462.542
  H      332.578    -332.623    -458.329
  H      333.512    -336.133    -459.611
  H      333.805    -334.670    -456.906
  H      332.903    -336.675    -455.879
  H      330.916    -337.000    -457.873
  H      329.882    -334.817    -457.049
  H      336.757    -330.636    -462.492
  H      335.574    -330.126    -461.297
  H      330.254    -335.961    -455.775
  P      333.488    -339.068    -456.456
  C      332.632    -340.979    -458.036
  O      333.706    -340.396    -457.323
  O      332.441    -339.139    -455.387
  O      334.946    -338.704    -455.899
  H      335.613    -338.543    -456.595
  H      333.013    -341.786    -458.664
  H      332.155    -340.240    -458.684
  H      331.891    -341.387    -457.338
  H      329.183    -330.515    -457.047
  H      329.650    -330.464    -455.364
  H      328.430    -331.595    -455.898

 3  4  5  6  7  8  9  10  11  12  22  25  29  30  31  32 0
 6-311+G(2d,p)
 ****
 33  36  37 0
 6-311+G(2d,p)
 ****
 1  2  13  14  15  16  17  18  19  20  21  23  24  26 0
 3-21G
 ****
 27  28  34  35  38  39  40  41  42  43  44  45  46  47  48 0
 3-21G
 ****


