%nproc=1
%NoSave
%Mem=1900MB
#P OB98/GEN NMR

erre ene a

0 1
  C      -26.573     -14.002    -475.831
  O      -26.913     -15.386    -475.804
  P      -27.030     -16.100    -477.240
  C      -28.850     -16.366    -479.069
  O      -28.538     -15.911    -477.757
  C      -30.367     -16.370    -479.292
  O      -31.015     -17.380    -478.446
  C      -31.052     -15.022    -478.986
  O      -32.127     -14.875    -479.920
  C      -31.589     -15.251    -477.581
  O      -32.570     -14.296    -477.197
  C      -32.066     -16.698    -477.712
  N      -34.893     -16.559    -473.461
  C      -34.857     -15.765    -474.557
  N      -34.068     -15.869    -475.637
  C      -33.253     -16.923    -475.536
  C      -33.151     -17.822    -474.485
  C      -34.027     -17.613    -473.405
  N      -34.052     -18.396    -472.270
  N      -32.176     -18.771    -474.735
  C      -31.637     -18.405    -475.890
  N      -32.308     -17.340    -476.440
  O      -26.937     -17.664    -476.888
  O      -25.980     -15.666    -478.208
  H      -32.728     -14.357    -476.235
  H      -26.020     -17.992    -477.051
  H      -35.550     -14.928    -474.550
  H      -30.772     -18.849    -476.347
  H      -32.986     -16.783    -478.302
  H      -30.760     -15.180    -476.863
  H      -30.377     -14.156    -479.070
  H      -30.563     -16.658    -480.346
  H      -28.461     -17.383    -479.221
  H      -34.706     -18.165    -471.548
  H      -33.426     -19.188    -472.192
  H      -28.347     -15.715    -479.801
  P      -31.961     -13.842    -481.134
  C      -32.281     -11.286    -481.163
  O      -32.759     -12.519    -480.649
  O      -32.990     -14.449    -482.199
  O      -30.569     -13.656    -481.669
  H      -33.856     -14.632    -481.786
  H      -32.944     -10.492    -480.827
  H      -32.267     -11.309    -482.262
  H      -31.277     -11.080    -480.761
  H      -26.522     -13.628    -474.830
  H      -27.319     -13.462    -476.376
  H      -25.623     -13.877    -476.308

 3  4  5  6  7  8  9  10  11  12  22  25  29  30  31  32 0
 6-311+G(2d,p)
 ****
 33  36  37 0
 6-311+G(2d,p)
 ****
 1  2  13  14  15  16  17  18  19  20  21  23  24  26 0
 3-21G
 ****
 27  28  34  35  38  39  40  41  42  43  44  45  46  47  48 0
 3-21G
 ****


