%nproc=1
%NoSave
%Mem=1900MB
#P OB98/GEN NMR

erre ene a

0 1
  C      -20.922    -184.545     404.769
  O      -21.575    -184.907     403.574
  H      -21.366    -185.066     405.624
  H      -19.867    -184.823     404.696
  H      -20.991    -183.462     404.922
  P      -23.163    -184.676     403.530
  C      -23.062    -185.187     400.991
  O      -23.702    -185.454     402.233
  C      -23.883    -185.763     399.843
  O      -23.865    -187.206     399.888
  C      -25.358    -185.383     399.857
  O      -25.574    -184.066     399.358
  C      -25.934    -186.439     398.922
  O      -25.712    -186.047     397.555
  C      -25.085    -187.674     399.259
  N      -27.393    -192.250     399.648
  C      -26.834    -191.611     398.592
  N      -26.252    -190.392     398.560
  C      -26.256    -189.830     399.783
  C      -26.781    -190.362     400.947
  C      -27.383    -191.628     400.854
  N      -27.957    -192.271     401.926
  N      -26.595    -189.505     402.007
  C      -25.965    -188.468     401.495
  N      -25.742    -188.613     400.152
  O      -23.304    -183.132     403.125
  O      -23.889    -184.975     404.800
  H      -25.932    -186.823     397.003
  H      -24.078    -182.751     403.583
  H      -26.865    -192.141     397.649
  H      -25.641    -187.596     402.061
  H      -24.787    -188.215     398.349
  H      -27.011    -186.588     399.052
  H      -25.794    -185.507     400.856
  H      -23.410    -185.454     398.898
  H      -22.068    -185.649     400.988
  H      -28.188    -193.246     401.839
  H      -27.937    -191.800     402.828
  H      -22.952    -184.106     400.871
  P      -26.622    -183.140     400.148
  C      -25.466    -180.813     400.158
  O      -26.424    -181.667     399.542
  O      -25.983    -183.028     401.612
  O      -28.016    -183.657     400.190
  H      -26.680    -182.843     402.268
  H      -25.447    -179.872     399.648
  H      -24.498    -181.267     400.106
  H      -25.733    -180.658     401.182

 6  7  8  9  10  11  12  13  14  15  25  28  32  33  34  35 0
 6-311+G(2d,p)
 ****
 36  39  40 0
 6-311+G(2d,p)
 ****
 1  2  3  4  5  16  17  18  19  20  21  22  23  24 0
 3-21G
 ****
 26  27  29  30  31  37  38  41  42  43  44  45  46  47  48 0
 3-21G
 ****


