%nproc=1
%NoSave
%Mem=1900MB
#P OB98/GEN NMR

erre ene a

0 1
  C     -247.279     100.069     -10.543
  O     -247.675      98.835     -11.113
  P     -248.171      97.664     -10.135
  C     -250.703      98.363     -10.173
  O     -249.511      98.197      -9.429
  C     -251.874      97.682      -9.460
  O     -253.104      97.993     -10.169
  C     -251.766      96.153      -9.381
  O     -252.340      95.750      -8.130
  C     -252.634      95.693     -10.537
  O     -253.086      94.356     -10.388
  C     -253.747      96.744     -10.495
  N     -254.488      96.861     -11.751
  C     -255.798      97.321     -11.694
  O     -256.377      97.614     -10.649
  N     -256.450      97.409     -12.897
  C     -255.958      97.027     -14.111
  O     -256.592      97.112     -15.154
  C     -254.584      96.504     -14.103
  C     -253.921      96.455     -12.946
  O     -247.068      97.736      -8.981
  O     -248.300      96.338     -10.803
  H     -246.769      98.642      -8.797
  H     -253.712      94.167     -11.110
  H     -257.391      97.777     -12.884
  H     -254.161      96.176     -15.045
  H     -252.909      96.072     -12.915
  H     -254.445      96.520      -9.678
  H     -252.060      95.754     -11.470
  H     -250.733      95.802      -9.447
  H     -251.963      98.111      -8.454
  H     -250.581      97.918     -11.162
  H     -250.898      99.433     -10.307
  P     -251.711      94.468      -7.384
  C     -249.906      95.928      -6.175
  O     -250.198      94.828      -7.008
  O     -251.542      93.472      -8.631
  O     -252.558      93.896      -6.298
  H     -251.113      93.891      -9.395
  H     -248.897      95.806      -5.773
  H     -250.608      95.994      -5.340
  H     -249.944      96.851      -6.760
  H     -246.978     100.740     -11.320
  H     -246.460      99.906      -9.874
  H     -248.100     100.493     -10.004

 3  4  5  6  7  8  9  10  11  12  13  24  28  29  30  31  32 0
 6-311+G(2d,p)
 ****
 33  34 0
 6-311+G(2d,p)
 ****
 1  2  14  15  16  17  18  19  20  21  22  23  25  26  27 0
 3-21G
 ****
 35  36  37  38  39  40  41  42  43  44  45 0
 3-21G
 ****


