%nproc=1
%NoSave
%Mem=1900MB
#P OB98/GEN NMR

erre ene a

0 1
  C      -33.031    -896.047    -312.367
  O      -33.193    -897.247    -311.628
  H      -32.247    -896.197    -313.113
  H      -32.731    -895.227    -311.702
  H      -33.962    -895.787    -312.881
  P      -34.318    -897.227    -310.489
  C      -35.663    -898.747    -312.135
  O      -35.683    -897.657    -311.205
  C      -37.084    -899.077    -312.605
  O      -37.874    -899.487    -311.453
  C      -37.821    -897.877    -313.246
  O      -38.757    -898.407    -314.210
  C      -38.585    -897.307    -312.049
  O      -39.573    -896.397    -312.465
  C      -39.030    -898.607    -311.388
  N      -43.002    -897.607    -308.330
  C      -42.917    -897.797    -309.663
  N      -41.833    -898.057    -310.410
  C      -40.731    -898.177    -309.631
  C      -40.670    -898.057    -308.250
  C      -41.873    -897.757    -307.590
  N      -41.957    -897.577    -306.230
  N      -39.376    -898.237    -307.803
  C      -38.675    -898.487    -308.894
  N      -39.456    -898.437    -310.018
  O      -34.525    -895.667    -310.195
  O      -33.992    -897.997    -309.254
  H      -39.902    -895.877    -311.696
  H      -33.985    -895.407    -309.428
  H      -43.852    -897.687    -310.222
  H      -37.613    -898.677    -308.918
  H      -39.843    -899.087    -311.953
  H      -37.893    -896.747    -311.392
  H      -37.153    -897.157    -313.735
  H      -37.053    -899.927    -313.279
  H      -35.224    -899.607    -311.647
  H      -35.041    -898.457    -313.000
  H      -42.859    -897.337    -305.834
  H      -41.126    -897.637    -305.665
  P      -39.006    -897.617    -315.578
  C      -37.741    -899.397    -317.014
  O      -37.863    -898.037    -316.622
  O      -38.550    -896.127    -315.187
  O      -40.406    -897.627    -316.101
  H      -39.034    -895.487    -315.757
  H      -36.934    -899.496    -317.709
  H      -38.651    -899.718    -317.476
  H      -37.546    -900.000    -316.152

 6  7  8  9  10  11  12  13  14  15  25  28  32  33  34  35 0
 6-311+G(2d,p)
 ****
 36  37  40 0
 6-311+G(2d,p)
 ****
 1  2  3  4  5  16  17  18  19  20  21  22  23  24 0
 3-21G
 ****
 26  27  29  30  31  38  39 41  42  43  44  45  46  47  48 0
 3-21G
 ****


