%nproc=1
%NoSave
%Mem=1900MB
#P OB98/GEN NMR

erre ene a

0 1
  C     -561.301    -499.401      50.921
  O     -561.704    -500.229      51.994
  H     -562.189    -499.119      50.344
  H     -560.608    -499.933      50.266
  H     -560.828    -498.493      51.306
  P     -560.528    -500.841      52.904
  C     -560.118    -502.843      51.279
  O     -560.567    -502.411      52.560
  C     -559.899    -504.352      51.286
  O     -558.878    -504.714      52.245
  C     -561.127    -505.172      51.679
  O     -562.078    -505.297      50.634
  C     -560.463    -506.498      52.003
  O     -560.087    -507.161      50.778
  C     -559.219    -506.021      52.785
  N     -559.451    -505.943      54.230
  C     -559.260    -507.113      54.967
  O     -558.919    -508.156      54.407
  N     -559.500    -507.093      56.318
  C     -559.866    -505.989      56.899
  N     -560.088    -506.031      58.237
  C     -560.065    -504.723      56.166
  C     -559.841    -504.775      54.850
  O     -561.140    -500.796      54.381
  O     -559.190    -500.201      52.764
  H     -559.451    -506.573      50.338
  H     -560.552    -501.285      55.007
  H     -560.387    -503.837      56.690
  H     -559.965    -503.880      54.246
  H     -558.365    -506.683      52.609
  H     -561.111    -507.180      52.549
  H     -561.596    -504.779      52.589
  H     -559.526    -504.641      50.292
  H     -559.997    -506.925      58.706
  H     -559.177    -502.326      51.054
  H     -560.520    -505.272      58.750
  H     -560.858    -502.588      50.514
  P     -563.394    -504.380      50.723
  C     -564.664    -506.100      52.209
  O     -564.626    -505.369      50.989
  O     -563.617    -503.912      49.206
  O     -563.291    -503.215      51.658
  H     -563.983    -503.009      49.175
  H     -565.543    -506.710      52.232
  H     -564.681    -505.418      53.033
  H     -563.796    -506.722      52.279

 6  7  8  9  10  11  12  13  14  15  16  26  30  31  32  33  35 0
 6-311+G(2d,p)
 ****
 37  38 0
 6-311+G(2d,p)
 ****
 1  2  3  4  5  17  18  19  20  21  22  23  24  25 0
 3-21G
 ****
 27  28  29  34  36  39  40  41  42  43  44  45  46 0
 3-21G
 ****


