%nproc=1
%NoSave
%Mem=1900MB
#P OB98/GEN NMR

erre ene a

0 1
  C      -51.237     287.080       6.678
  O      -51.355     286.085       7.687
  P      -50.150     285.030       7.828
  C      -51.719     282.961       7.866
  O      -50.780     283.758       8.581
  C      -51.323     281.493       7.915
  O      -50.110     281.285       7.166
  C      -51.034     280.960       9.313
  O      -52.225     280.628      10.016
  C      -50.219     279.712       8.988
  O      -51.109     278.631       8.655
  C      -49.423     280.150       7.753
  N      -44.629     278.555       8.137
  C      -45.769     277.858       7.785
  N      -45.606     276.557       7.470
  N      -46.966     278.394       7.758
  C      -46.975     279.708       8.055
  C      -45.909     280.512       8.420
  C      -44.598     279.900       8.505
  O      -43.565     280.447       8.867
  N      -46.310     281.804       8.633
  C      -47.600     281.801       8.366
  N      -48.057     280.545       8.041
  O      -49.215     285.695       8.942
  O      -49.400     284.748       6.571
  H      -51.443     278.265       9.495
  H      -48.297     285.379       8.838
  H      -43.734     278.104       8.129
  H      -48.240     282.672       8.399
  H      -49.405     279.367       6.989
  H      -49.604     279.373       9.826
  H      -44.699     276.127       7.353
  H      -50.417     281.664       9.883
  H      -46.425     276.039       7.177
  H      -52.121     280.906       7.436
  H      -51.747     283.291       6.819
  H      -52.711     283.105       8.304
  P      -52.684     281.639      11.175
  C      -53.074     280.149      13.271
  O      -53.635     280.783      12.127
  O      -53.676     282.635      10.419
  O      -51.554     282.361      11.837
  H      -53.703     283.502      10.874
  H      -52.294     280.767      13.725
  H      -52.658     279.182      12.980
  H      -53.863     279.992      14.003
  H      -52.102     287.710       6.695
  H      -51.158     286.609       5.720
  H      -50.363     287.670       6.859

 3  4  5  6  7  8  9  10  11  12  23  26  30  31  33  0
 6-311+G(2d,p)
 ****
 35  36  37  38 0
 6-311+G(2d,p)
 ****
 1  2  13  14  15  16  17  18  19  20  21  22  24  25  27  28  29 0
 3-21G
 ****
 32  34  39  40  41  42  43  44  45  46  47  48  49 0
 3-21G
 ****


