%nproc=1
%NoSave
%Mem=1900MB
#P OB98/GEN NMR

erre ene a

0 1
  C     2815.728    -980.048    -209.871
  O     2814.692    -979.716    -208.925
  P     2814.634    -978.207    -208.386
  C     2812.436    -977.117    -209.289
  O     2813.837    -977.328    -209.463
  C     2811.696    -977.420    -210.607
  O     2811.897    -978.780    -211.056
  C     2810.187    -977.241    -210.500
  O     2809.811    -975.905    -210.645
  C     2809.728    -978.062    -211.720
  O     2809.866    -977.273    -212.902
  C     2810.716    -979.233    -211.729
  N     2809.375    -984.141    -212.357
  C     2809.815    -983.214    -213.240
  N     2810.129    -981.916    -212.985
  C     2809.980    -981.626    -211.695
  C     2809.538    -982.476    -210.658
  C     2809.236    -983.803    -211.052
  N     2808.797    -984.756    -210.162
  N     2809.507    -981.828    -209.453
  C     2809.927    -980.600    -209.721
  N     2810.224    -980.425    -211.051
  O     2816.145    -977.690    -208.525
  O     2814.137    -978.086    -206.980
  H     2810.796    -977.277    -213.170
  H     2816.351    -977.078    -207.803
  H     2809.905    -983.537    -214.256
  H     2810.033    -979.805    -209.004
  H     2810.984    -979.542    -212.744
  H     2808.661    -978.335    -211.640
  H     2809.793    -977.703    -209.568
  H     2812.092    -976.748    -211.378
  H     2812.241    -976.089    -208.989
  H     2808.630    -985.676    -210.469
  H     2808.733    -984.489    -209.187
  H     2812.087    -977.760    -208.468
  P     2810.129    -974.912    -209.388
  C     2811.879    -973.434    -210.627
  O     2811.618    -974.388    -209.618
  O     2810.253    -975.909    -208.151
  O     2809.093    -973.853    -209.166
  H     2809.975    -975.489    -207.331
  H     2812.850    -972.975    -210.454
  H     2811.105    -972.639    -210.611
  H     2811.855    -973.879    -211.612
  H     2815.646    -981.080    -210.142
  H     2816.686    -979.870    -209.428
  H     2815.621    -979.440    -210.745

 3  4  5  6  7  8  9  10  11  12  22  25  29  30  31  32 0
 6-311+G(2d,p)
 ****
 33  36  37 0
 6-311+G(2d,p)
 ****
 1  2  13  14  15  16  17  18  19  20  21  23  24  26 0
 3-21G
 ****
 27  28  34  35  38  39  40  41  42  43  44  45  46  47  48 0
 3-21G
 ****


