%nproc=1
%NoSave
%Mem=1900MB
#P OB98/GEN NMR

erre ene a

0 1
  C     -135.800     187.318    -865.727
  O     -135.345     186.585    -866.870
  P     -134.044     187.162    -867.624
  C     -132.188     185.549    -866.766
  O     -132.773     186.846    -866.693
  C     -130.665     185.649    -866.817
  O     -130.234     186.458    -867.925
  C     -130.035     186.298    -865.588
  O     -129.938     185.395    -864.505
  C     -128.654     186.663    -866.119
  O     -127.792     185.515    -866.053
  C     -128.950     187.030    -867.582
  N     -126.248     191.299    -868.045
  C     -125.827     190.007    -867.803
  N     -124.492     189.812    -867.695
  N     -126.636     188.985    -867.678
  C     -127.941     189.319    -867.836
  C     -128.487     190.559    -868.078
  C     -127.576     191.684    -868.181
  O     -127.897     192.851    -868.361
  N     -129.847     190.497    -868.191
  C     -130.133     189.218    -868.046
  N     -129.005     188.463    -867.813
  O     -134.219     188.744    -867.482
  O     -133.934     186.736    -869.049
  H     -127.731     185.259    -865.109
  H     -133.764     189.201    -868.214
  H     -125.582     192.045    -868.125
  H     -131.121     188.791    -868.106
  H     -128.206     186.601    -868.265
  H     -128.174     187.452    -865.541
  H     -123.803     190.541    -867.850
  H     -130.583     187.211    -865.310
  H     -124.159     188.866    -867.553
  H     -130.260     184.636    -866.946
  H     -132.545     185.029    -867.652
  H     -132.512     184.969    -865.896
  P     -129.889     186.018    -863.025
  C     -132.290     185.099    -862.692
  O     -131.418     186.197    -862.583
  O     -129.375     187.516    -863.284
  O     -129.007     185.275    -862.073
  H     -128.890     187.839    -862.502
  H     -131.809     184.174    -862.343
  H     -132.599     184.970    -863.736
  H     -133.177     185.281    -862.077
  H     -136.664     186.839    -865.317
  H     -136.051     188.316    -866.020
  H     -135.025     187.347    -864.990

 3  4  5  6  7  8  9  10  11  12  23  26  30  31  33  0
 6-311+G(2d,p)
 ****
 35  36  37  38 0
 6-311+G(2d,p)
 ****
 1  2  13  14  15  16  17  18  19  20  21  22  24  25  27  28  29 0
 3-21G
 ****
 32  34  39  40  41  42  43  44  45  46  47  48  49 0
 3-21G
 ****


