%nproc=1
%NoSave
%Mem=1900MB
#P OB98/GEN NMR

erre ene a

0 1
  C      -11.131     116.163      88.783
  O      -11.118     114.802      89.167
  H      -10.254     116.360      88.162
  H      -11.090     116.805      89.667
  H      -12.031     116.385      88.204
  P      -12.344     114.300      90.073
  C      -13.220     114.863      92.455
  O      -12.189     115.033      91.491
  C      -12.618     114.862      93.856
  O      -11.677     113.771      93.984
  C      -11.827     116.120      94.188
  O      -12.663     117.210      94.532
  C      -10.964     115.629      95.340
  O      -11.675     115.678      96.583
  C      -10.678     114.176      94.947
  N       -6.035     112.222      95.774
  C       -7.184     112.147      96.480
  N       -8.386     112.687      96.185
  C       -8.336     113.337      95.009
  C       -7.240     113.494      94.178
  C       -6.041     112.896      94.600
  N       -4.865     112.991      93.895
  N       -7.569     114.261      93.079
  C       -8.844     114.555      93.238
  N       -9.350     114.015      94.388
  O      -11.960     112.778      90.387
  O      -13.688     114.415      89.439
  H      -12.098     116.558      96.622
  H      -12.460     112.187      89.792
  H       -7.129     111.590      97.411
  H       -9.437     115.156      92.558
  H      -10.755     113.492      95.801
  H      -10.069     116.242      95.444
  H      -11.173     116.386      93.347
  H      -13.424     114.705      94.584
  H      -13.727     113.908      92.280
  H      -13.945     115.677      92.346
  H       -4.027     112.596      94.291
  H       -4.831     113.588      93.078
  P      -12.520     118.557      93.674
  C      -10.913     120.611      93.683
  O      -11.229     119.334      94.220
  O      -13.745     119.459      94.171
  O      -12.542     118.358      92.196
  H      -14.096     119.983      93.425
  H      -10.029     120.987      94.154
  H      -11.725     121.284      93.861
  H      -10.747     120.524      92.630

 6  7  8  9  10  11  12  13  14  15  25  28  32  33  34  35 0
 6-311+G(2d,p)
 ****
 36  37  40 0
 6-311+G(2d,p)
 ****
 1  2  3  4  5  16  17  18  19  20  21  22  23  24 0
 3-21G
 ****
 26  27  29  30  31  38  39 41  42  43  44  45  46  47  48 0
 3-21G
 ****


