%nproc=1
%NoSave
%Mem=1900MB
#P OB98/GEN NMR

erre ene a

0 1
  C       63.121    -100.925      -3.035
  O       63.467    -102.230      -3.446
  H       63.841    -100.223      -3.461
  H       63.157    -100.845      -1.946
  H       62.122    -100.664      -3.396
  P       62.601    -103.465      -2.904
  C       60.430    -103.275      -4.290
  O       61.672    -103.950      -4.121
  C       59.846    -103.581      -5.675
  O       60.640    -102.867      -6.655
  C       59.890    -105.077      -6.013
  O       58.625    -105.593      -6.420
  C       61.053    -105.177      -6.995
  O       60.972    -106.270      -7.886
  C       61.061    -103.800      -7.667
  N       62.363    -103.417      -8.211
  C       62.709    -103.928      -9.459
  O       62.002    -104.665     -10.142
  N       63.942    -103.552      -9.931
  C       64.839    -102.752      -9.290
  O       65.927    -102.447      -9.765
  C       64.428    -102.266      -7.963
  C       63.229    -102.616      -7.493
  O       61.875    -103.230      -1.622
  O       63.664    -104.656      -2.768
  H       61.118    -107.084      -7.360
  H       63.875    -104.796      -1.825
  H       64.198    -103.904     -10.840
  H       65.122    -101.638      -7.421
  H       62.892    -102.273      -6.519
  H       60.339    -103.768      -8.484
  H       61.980    -105.299      -6.422
  H       60.128    -105.671      -5.123
  H       58.826    -103.184      -5.723
  H       60.615    -102.201      -4.184
  H       59.728    -103.596      -3.512
  P       57.680    -106.515      -5.526
  C       56.023    -104.561      -4.932
  O       56.223    -105.859      -5.477
  O       58.254    -106.974      -4.228
  O       57.448    -107.824      -6.442
  H       57.350    -108.576      -5.824
  H       54.986    -104.305      -4.991
  H       56.598    -103.849      -5.486
  H       56.335    -104.552      -3.908

 6  7  8  9  10  11  12  13  14  15  16  26  31  32  33  34  35 0
 6-311+G(2d,p)
 ****
 36  37 0
 6-311+G(2d,p)
 ****
 1  2  3  4  5  17  18  19  20  21  22  23  24  25 0
 3-21G
 ****
 27  28  29  30  38  39  40  41  42  43  44  45 0
 3-21G
 ****


