%nproc=1
%NoSave
%Mem=1900MB
#P OB98/GEN NMR

erre ene a

0 1
  C      -78.458     107.666    -191.861
  O      -78.001     107.425    -193.177
  H      -79.084     108.563    -191.866
  H      -77.606     107.837    -191.199
  H      -79.051     106.824    -191.496
  P      -77.231     106.038    -193.428
  C      -74.968     107.312    -193.444
  O      -75.731     106.247    -192.896
  C      -73.616     106.798    -193.932
  O      -72.711     106.629    -192.818
  C      -73.678     105.448    -194.637
  O      -74.052     105.582    -196.004
  C      -72.233     104.999    -194.509
  O      -71.417     105.698    -195.473
  C      -71.886     105.461    -193.087
  N      -69.833     101.711    -190.359
  C      -69.269     102.511    -191.337
  N      -67.974     102.272    -191.637
  N      -69.914     103.459    -191.966
  C      -71.206     103.577    -191.572
  C      -71.877     102.846    -190.616
  C      -71.148     101.810    -189.921
  O      -71.592     101.088    -189.031
  N      -73.175     103.265    -190.483
  C      -73.295     104.231    -191.373
  N      -72.131     104.457    -192.064
  O      -77.053     105.997    -195.021
  O      -77.929     104.819    -192.929
  H      -70.494     105.619    -195.171
  H      -77.137     105.073    -195.323
  H      -69.293     100.990    -189.915
  H      -74.199     104.800    -191.552
  H      -70.840     105.769    -192.991
  H      -72.103     103.933    -194.695
  H      -67.434     101.527    -191.226
  H      -74.327     104.744    -194.106
  H      -67.528     102.866    -192.326
  H      -73.184     107.562    -194.594
  H      -74.809     108.073    -192.675
  H      -75.525     107.757    -194.276
  P      -74.979     104.432    -196.637
  C      -72.985     103.531    -198.035
  O      -73.977     103.251    -197.054
  O      -75.419     105.058    -198.045
  O      -76.153     104.039    -195.806
  H      -76.246     104.640    -198.352
  H      -72.397     102.654    -198.208
  H      -72.353     104.322    -197.688
  H      -73.459     103.828    -198.947

 6  7  8  9  10  11  12  13  14  15  26  29  33  34 0
 6-311+G(2d,p)
 ****
 36  38  39  40  41 0
 6-311+G(2d,p)
 ****
 1  2  3  4  5  16  17  18  19  20  21  22  23  24  25 0
 3-21G
 ****
 27  28  30  31  32  35  37  42  43  44  45  46  47 0
 3-21G
 ****
 48  49 0
 3-21G
 ****


