%nproc=1
%NoSave
%Mem=1900MB
#P OB98/GEN NMR

erre ene a

0 1
  C      187.442     106.866     110.091
  O      187.590     105.467     110.233
  H      187.451     107.114     109.027
  H      188.268     107.387     110.582
  H      186.491     107.188     110.524
  P      187.716     104.909     111.735
  C      189.727     103.410     111.016
  O      189.258     104.464     111.843
  C      191.125     103.735     110.496
  O      191.213     105.123     110.104
  C      192.243     103.535     111.518
  O      192.607     102.176     111.696
  C      193.350     104.333     110.850
  O      193.879     103.589     109.736
  C      192.568     105.576     110.374
  N      192.562     106.662     111.357
  C      193.741     107.409     111.472
  O      194.721     107.151     110.778
  N      193.793     108.418     112.408
  C      192.756     108.674     113.145
  N      192.870     109.683     114.052
  C      191.493     107.923     113.047
  C      191.465     106.944     112.145
  O      186.950     103.505     111.673
  O      187.247     105.823     112.816
  H      193.135     103.434     109.125
  H      187.094     103.005     112.515
  H      190.659     108.164     113.693
  H      190.569     106.347     112.015
  H      192.979     105.960     109.431
  H      194.189     104.547     111.514
  H      191.999     104.003     112.478
  H      191.297     103.130     109.597
  H      193.769     110.141     114.137
  H      189.032     103.293     110.177
  H      192.178     109.858     114.769
  H      189.761     102.474     111.584
  P      192.208     101.486     113.090
  C      194.732     101.187     113.670
  O      193.457     101.677     114.077
  O      192.244      99.925     112.744
  O      190.884     101.908     113.647
  H      191.566      99.441     113.254
  H      195.453     101.391     114.434
  H      195.027     101.671     112.762
  H      194.673     100.131     113.508

 6  7  8  9  10  11  12  13  14  15  16  26  30  31  32  33  35 0
 6-311+G(2d,p)
 ****
 37  38 0
 6-311+G(2d,p)
 ****
 1  2  3  4  5  17  18  19  20  21  22  23  24  25 0
 3-21G
 ****
 27  28  29  34  36  39  40  41  42  43  44  45  46 0
 3-21G
 ****


