%nproc=1
%NoSave
%Mem=1900MB
#P OB98/GEN NMR

erre ene a

0 1
  C       -8.904      77.626      23.044
  O       -9.536      76.978      21.955
  P       -9.972      77.794      20.643
  C      -10.102      77.230      18.135
  O       -9.646      76.808      19.417
  C      -10.069      76.058      17.153
  O       -8.690      75.627      17.002
  C      -10.841      74.809      17.582
  O      -12.229      74.839      17.281
  C      -10.160      73.749      16.719
  O      -10.676      73.816      15.378
  C       -8.696      74.198      16.748
  N       -5.661      70.200      17.755
  C       -6.248      70.626      16.611
  N       -7.060      71.687      16.430
  C       -7.210      72.369      17.579
  C       -6.668      72.068      18.823
  C       -5.859      70.919      18.885
  N       -5.237      70.501      20.048
  N       -7.064      72.994      19.765
  C       -7.815      73.848      19.104
  N       -7.928      73.522      17.778
  O       -9.390      79.162      20.543
  O      -11.569      77.793      20.688
  H      -11.628      73.590      15.426
  H      -11.918      78.483      20.088
  H       -6.049      70.027      15.729
  H       -8.299      74.707      19.535
  H       -8.191      74.036      15.790
  H      -10.334      72.728      17.078
  H      -10.666      74.576      18.641
  H      -10.421      76.416      16.174
  H       -9.429      78.019      17.772
  H       -4.577      69.749      19.971
  H       -5.250      71.126      20.846
  H      -11.107      77.649      18.221
  P      -13.123      73.614      17.826
  C      -15.500      73.477      18.929
  O      -14.475      74.280      18.375
  O      -12.421      72.711      18.778
  O      -13.598      72.893      16.480
  H      -14.207      73.413      15.919
  H      -16.246      74.132      19.385
  H      -15.103      72.813      19.696
  H      -15.978      72.896      18.139
  H       -8.697      76.911      23.813
  H       -9.550      78.387      23.429
  H       -7.988      78.069      22.713

 3  4  5  6  7  8  9  10  11  12  22  25  29  30  31  32 0
 6-311+G(2d,p)
 ****
 33  36  37 0
 6-311+G(2d,p)
 ****
 1  2  13  14  15  16  17  18  19  20  21  23  24  26 0
 3-21G
 ****
 27  28  34  35  38  39  40  41  42  43  44  45  46  47  48 0
 3-21G
 ****


