%nproc=1
%NoSave
%Mem=1900MB
#P OB98/GEN NMR

erre ene a

0 1
  C      168.376      23.466      38.602
  O      169.772      23.263      38.528
  H      167.920      23.119      37.670
  H      168.156      24.530      38.726
  H      167.953      22.898      39.435
  P      170.629      23.671      39.821
  C      171.031      26.128      39.072
  O      171.605      24.858      39.358
  C      172.041      26.993      38.323
  O      171.467      28.296      38.074
  C      173.333      27.254      39.090
  O      174.223      26.154      39.020
  C      173.850      28.500      38.382
  O      174.563      28.168      37.184
  C      172.556      29.246      38.032
  N      173.884      34.013      39.249
  C      174.272      33.195      38.246
  N      173.853      31.938      37.980
  C      172.930      31.550      38.876
  C      172.443      32.269      39.954
  C      172.957      33.565      40.128
  N      172.589      34.383      41.168
  N      171.539      31.513      40.673
  C      171.475      30.361      40.035
  N      172.294      30.342      38.943
  O      171.614      22.421      40.005
  O      169.833      23.943      41.053
  H      174.688      29.003      36.694
  H      171.230      21.794      40.645
  H      175.019      33.602      37.571
  H      170.863      29.517      40.330
  H      172.580      29.664      37.019
  H      174.532      29.064      39.019
  H      173.110      27.506      40.134
  H      172.252      26.523      37.354
  H      170.761      26.623      40.011
  H      170.127      25.982      38.472
  H      173.017      35.292      41.245
  H      171.980      34.019      41.889
  P      174.787      25.539      40.385
  C      176.655      27.275      40.889
  O      176.335      25.950      40.501
  O      174.833      23.968      40.088
  O      173.974      25.856      41.595
  H      174.061      23.523      40.486
  H      177.718      27.391      40.920
  H      176.247      27.471      41.858
  H      176.242      27.963      40.182

 6  7  8  9  10  11  12  13  14  15  25  28  32  33  34  35 0
 6-311+G(2d,p)
 ****
 36  37  40 0
 6-311+G(2d,p)
 ****
 1  2  3  4  5  16  17  18  19  20  21  22  23  24 0
 3-21G
 ****
 26  27  29  30  31  38  39 41  42  43  44  45  46  47  48 0
 3-21G
 ****


