%nproc=1
%NoSave
%Mem=1900MB
#P OB98/GEN NMR

erre ene a

0 1
  C      160.993     337.558    -405.532
  O      161.287     336.547    -406.476
  H      161.604     338.437    -405.759
  H      161.236     337.210    -404.522
  H      159.936     337.841    -405.588
  P      160.364     335.233    -406.438
  C      160.148     333.299    -404.670
  O      160.924     334.352    -405.216
  C      161.041     332.272    -403.973
  O      161.762     331.523    -404.987
  C      162.076     332.891    -403.034
  O      162.254     332.016    -401.912
  C      163.347     332.910    -403.863
  O      164.522     332.950    -403.057
  C      163.175     331.629    -404.697
  N      163.977     331.648    -405.922
  C      164.954     330.662    -406.048
  O      165.117     329.827    -405.149
  N      165.748     330.644    -407.170
  C      165.620     331.586    -408.054
  N      166.456     331.539    -409.127
  C      164.634     332.680    -407.937
  C      163.841     332.645    -406.869
  O      160.865     334.443    -407.734
  O      158.901     335.507    -406.405
  H      164.497     332.196    -402.426
  H      161.835     334.427    -407.831
  H      164.570     333.447    -408.701
  H      163.087     333.403    -406.706
  H      163.462     330.748    -404.113
  H      163.362     333.791    -404.517
  H      161.786     333.891    -402.682
  H      160.407     331.555    -403.442
  H      167.136     330.778    -409.157
  H      159.571     332.803    -405.460
  H      166.491     332.241    -409.851
  H      159.441     333.736    -403.953
  P      161.680     332.445    -400.480
  C      162.489     333.702    -398.368
  O      162.748     333.370    -399.728
  O      161.109     331.334    -399.657
  O      160.524     333.500    -400.867
  H      159.760     333.328    -400.281
  H      163.279     334.320    -397.995
  H      162.433     332.806    -397.787
  H      161.561     334.230    -398.300

 6  7  8  9  10  11  12  13  14  15  16  26  30  31  32  33  35 0
 6-311+G(2d,p)
 ****
 37  38 0
 6-311+G(2d,p)
 ****
 1  2  3  4  5  17  18  19  20  21  22  23  24  25 0
 3-21G
 ****
 27  28  29  34  36  39  40  41  42  43  44  45  46 0
 3-21G
 ****


