%nproc=1
%NoSave
%Mem=1900MB
#P OB98/GEN NMR

erre ene a

0 1
  C       11.550     210.274     -80.498
  O       12.302     209.292     -79.785
  P       11.821     208.855     -78.320
  C       13.471     210.126     -76.803
  O       12.142     210.051     -77.294
  C       13.484     210.191     -75.270
  O       12.774     211.374     -74.800
  C       12.804     208.973     -74.625
  O       13.438     208.645     -73.380
  C       11.411     209.490     -74.316
  O       10.774     208.709     -73.309
  C       11.726     210.929     -73.914
  N        7.923     213.166     -71.313
  C        8.964     212.405     -70.906
  N        9.950     211.863     -71.653
  C        9.798     212.189     -72.948
  C        8.794     212.962     -73.508
  C        7.815     213.459     -72.628
  N        6.739     214.208     -73.046
  N        8.963     213.075     -74.874
  C       10.025     212.341     -75.138
  N       10.583     211.813     -74.005
  O       12.264     207.504     -77.868
  O       10.223     208.924     -78.438
  H        9.886     209.087     -73.164
  H        9.836     208.153     -77.978
  H        9.007     212.199     -69.840
  H       10.419     212.149     -76.125
  H       12.111     210.990     -72.888
  H       10.793     209.455     -75.220
  H       12.782     208.079     -75.254
  H       14.520     210.281     -74.924
  H       13.967     211.009     -77.216
  H        6.028     214.420     -72.364
  H        6.567     214.306     -74.038
  H       14.039     209.264     -77.170
  P       14.555     207.486     -73.439
  C       13.117     205.311     -73.242
  O       13.824     206.209     -74.070
  O       15.260     207.269     -72.141
  O       15.511     208.012     -74.609
  H       15.053     208.266     -75.428
  H       12.591     204.590     -73.873
  H       12.382     205.840     -72.631
  H       13.814     204.768     -72.595
  H       12.004     210.448     -81.451
  H       11.534     211.186     -79.939
  H       10.549     209.924     -80.639

 3  4  5  6  7  8  9  10  11  12  22  25  29  30  31  32 0
 6-311+G(2d,p)
 ****
 33  36  37 0
 6-311+G(2d,p)
 ****
 1  2  13  14  15  16  17  18  19  20  21  23  24  26 0
 3-21G
 ****
 27  28  34  35  38  39  40  41  42  43  44  45  46  47  48 0
 3-21G
 ****


