%nproc=1
%NoSave
%Mem=1900MB
#P OB98/GEN NMR

erre ene a

0 1
  C     -898.697     961.332     855.835
  O     -898.456     962.120     856.981
  H     -899.359     960.510     856.112
  H     -897.757     960.921     855.459
  H     -899.194     961.917     855.051
  P     -897.771     963.549     856.809
  C     -895.557     962.535     857.660
  O     -896.185     963.289     856.633
  C     -894.048     962.845     857.678
  O     -893.853     964.293     857.865
  C     -893.266     962.123     858.804
  O     -891.951     961.786     858.328
  C     -893.197     963.199     859.859
  O     -892.186     962.960     860.796
  C     -892.984     964.429     858.983
  N     -893.243     965.658     859.740
  C     -892.256     966.059     860.663
  O     -891.231     965.408     860.884
  N     -892.564     967.176     861.381
  C     -893.749     967.869     861.360
  O     -893.967     968.808     862.116
  C     -894.751     967.377     860.416
  C     -894.452     966.319     859.655
  O     -898.105     964.570     857.857
  O     -898.200     964.035     855.340
  H     -892.212     963.636     861.519
  H     -898.113     965.007     855.248
  H     -891.860     967.482     862.073
  H     -895.693     967.908     860.350
  H     -895.165     965.929     858.932
  H     -891.954     964.475     858.593
  H     -894.151     963.254     860.417
  H     -893.768     961.206     859.150
  H     -893.629     962.593     856.695
  H     -895.712     961.457     857.451
  H     -896.001     962.796     858.629
  P     -891.460     960.275     858.179
  C     -890.584     960.028     860.595
  O     -891.507     959.526     859.612
  O     -890.166     960.109     857.472
  O     -892.632     959.554     857.346
  H     -892.235     958.996     856.651
  H     -890.691     959.471     861.502
  H     -890.791     961.061     860.784
  H     -889.583     959.925     860.230

 6  7  8  9  10  11  12  13  14  15  16  26  31  32  33  34  35 0
 6-311+G(2d,p)
 ****
 36  37 0
 6-311+G(2d,p)
 ****
 1  2  3  4  5  17  18  19  20  21  22  23  24  25 0
 3-21G
 ****
 27  28  29  30  38  39  40  41  42  43  44  45 0
 3-21G
 ****


