%nproc=1
%NoSave
%Mem=1900MB
#P OB98/GEN NMR

erre ene a

0 1
  C     -297.683    -203.897     -81.804
  O     -297.378    -203.074     -82.917
  P     -298.581    -202.600     -83.862
  C     -298.985    -200.347     -82.629
  O     -299.519    -201.608     -83.010
  C     -300.102    -199.395     -82.202
  O     -299.525    -198.133     -81.769
  C     -301.102    -199.082     -83.320
  O     -302.409    -198.897     -82.748
  C     -300.644    -197.734     -83.839
  O     -301.704    -197.029     -84.483
  C     -300.148    -197.083     -82.545
  N     -299.691    -192.247     -83.934
  C     -300.814    -192.939     -83.525
  N     -301.986    -192.272     -83.579
  N     -300.787    -194.174     -83.097
  C     -299.546    -194.719     -83.106
  C     -298.356    -194.125     -83.473
  C     -298.403    -192.765     -83.954
  O     -297.452    -192.105     -84.355
  N     -297.299    -194.981     -83.310
  C     -297.845    -196.107     -82.887
  N     -299.207    -196.007     -82.782
  O     -299.468    -203.925     -84.001
  O     -298.162    -202.092     -85.201
  H     -301.348    -196.156     -84.740
  H     -299.339    -204.316     -84.888
  H     -299.766    -191.299     -84.265
  H     -297.311    -197.019     -82.667
  H     -300.976    -196.684     -81.951
  H     -299.830    -197.869     -84.560
  H     -302.082    -191.342     -83.965
  H     -301.155    -199.838     -84.109
  H     -302.830    -192.770     -83.329
  H     -300.614    -199.821     -81.332
  H     -298.454    -199.915     -83.475
  H     -298.272    -200.486     -81.809
  P     -303.642    -199.428     -83.633
  C     -304.142    -201.568     -82.240
  O     -303.658    -201.017     -83.450
  O     -303.131    -199.221     -85.137
  O     -304.932    -198.725     -83.368
  H     -303.894    -199.122     -85.740
  H     -305.028    -202.167     -82.452
  H     -304.396    -200.799     -81.506
  H     -303.369    -202.218     -81.813
  H     -296.783    -204.128     -81.274
  H     -298.139    -204.803     -82.145
  H     -298.358    -203.381     -81.153

 3  4  5  6  7  8  9  10  11  12  23  26  30  31 0
 6-311+G(2d,p)
 ****
 33  35  36  37  38 0
 6-311+G(2d,p)
 ****
 1  2  13  14  15  16  17  18  19  20  21  22  24  25 0
 3-21G
 ****
 27  28  29  32  34  39  40  41  42  43  44  45  46  47  48  49 0
 3-21G
 ****


