%nproc=1
%NoSave
%Mem=1900MB
#P OB98/GEN NMR

erre ene a

0 1
  C     -157.495     344.369    -115.856
  O     -157.484     342.975    -115.595
  P     -156.233     342.073    -116.025
  C     -157.533     341.148    -118.047
  O     -156.835     340.828    -116.852
  C     -158.300     339.928    -118.568
  O     -157.362     338.837    -118.755
  C     -159.387     339.446    -117.619
  O     -160.496     338.971    -118.389
  C     -158.758     338.262    -116.905
  O     -159.764     337.341    -116.437
  C     -157.829     337.709    -117.986
  N     -155.742     333.144    -116.920
  C     -156.906     333.480    -117.512
  N     -157.410     334.709    -117.740
  C     -156.543     335.663    -117.333
  C     -155.315     335.467    -116.722
  C     -154.916     334.136    -116.509
  N     -153.719     333.793    -115.917
  N     -154.720     336.684    -116.421
  C     -155.567     337.585    -116.869
  N     -156.682     337.017    -117.442
  O     -155.311     341.694    -114.920
  O     -155.487     342.929    -117.156
  H     -160.224     337.768    -115.683
  H     -154.522     342.836    -117.073
  H     -157.523     332.648    -117.840
  H     -155.431     338.653    -116.798
  H     -158.354     337.030    -118.667
  H     -158.200     338.613    -116.031
  H     -159.723     340.219    -116.920
  H     -158.717     340.178    -119.552
  H     -156.805     341.468    -118.800
  H     -153.463     332.817    -115.920
  H     -153.031     334.526    -115.774
  H     -158.218     341.984    -117.856
  P     -161.907     339.694    -118.101
  C     -163.698     337.804    -117.897
  O     -163.008     338.701    -118.735
  O     -161.922     341.111    -118.575
  O     -162.041     339.507    -116.518
  H     -161.524     338.741    -116.201
  H     -164.369     337.197    -118.509
  H     -164.303     338.359    -117.169
  H     -162.999     337.148    -117.370
  H     -158.410     344.792    -115.496
  H     -157.415     344.535    -116.910
  H     -156.668     344.832    -115.358

 3  4  5  6  7  8  9  10  11  12  22  25  29  30  31  32 0
 6-311+G(2d,p)
 ****
 33  36  37 0
 6-311+G(2d,p)
 ****
 1  2  13  14  15  16  17  18  19  20  21  23  24  26 0
 3-21G
 ****
 27  28  34  35  38  39  40  41  42  43  44  45  46  47  48 0
 3-21G
 ****


