%nproc=1
%NoSave
%Mem=1900MB
#P OB98/GEN NMR

erre ene a

0 1
  C     -396.880     200.375    -391.255
  O     -396.362     200.288    -389.935
  P     -397.230     200.930    -388.746
  C     -397.679     203.330    -387.851
  O     -397.062     202.525    -388.844
  C     -397.990     204.731    -388.396
  O     -398.944     204.604    -389.485
  C     -398.599     205.695    -387.358
  O     -398.103     207.002    -387.673
  C     -400.084     205.583    -387.658
  O     -400.863     206.645    -387.115
  C     -400.054     205.485    -389.182
  N     -404.835     206.668    -390.579
  C     -403.817     207.425    -390.120
  N     -402.566     207.043    -389.776
  C     -402.407     205.723    -389.953
  C     -403.364     204.814    -390.392
  C     -404.630     205.336    -390.720
  N     -405.669     204.546    -391.174
  N     -402.844     203.529    -390.422
  C     -401.598     203.663    -390.003
  N     -401.279     204.970    -389.739
  O     -396.386     200.555    -387.442
  O     -398.647     200.444    -388.665
  H     -400.583     206.817    -386.192
  H     -396.976     200.321    -386.695
  H     -404.030     208.488    -390.022
  H     -400.893     202.844    -389.870
  H     -399.857     206.455    -389.647
  H     -400.466     204.652    -387.212
  H     -398.330     205.452    -386.321
  H     -397.066     205.148    -388.809
  H     -396.997     203.437    -386.993
  H     -406.585     204.980    -391.187
  H     -405.571     203.538    -391.077
  H     -398.594     202.833    -387.488
  P     -398.097     208.136    -386.528
  C     -399.926     209.797    -385.838
  O     -399.654     208.508    -386.347
  O     -397.554     209.396    -387.358
  O     -397.314     207.798    -385.297
  H     -398.051     209.523    -388.175
  H     -401.007     209.958    -385.856
  H     -399.441     210.562    -386.457
  H     -399.582     209.877    -384.811
  H     -396.200     199.908    -391.937
  H     -397.004     201.404    -391.523
  H     -397.827     199.879    -391.300

 3  4  5  6  7  8  9  10  11  12  22  25  29  30  31  32 0
 6-311+G(2d,p)
 ****
 33  36  37 0
 6-311+G(2d,p)
 ****
 1  2  13  14  15  16  17  18  19  20  21  23  24  26 0
 3-21G
 ****
 27  28  34  35  38  39  40  41  42  43  44  45  46  47  48 0
 3-21G
 ****


