%nproc=1
%NoSave
%Mem=1900MB
#P OB98/GEN NMR

erre ene a

0 1
  C     -264.165    -386.786     693.427
  O     -264.046    -385.790     692.434
  P     -262.600    -385.352     691.886
  C     -263.286    -385.894     689.458
  O     -262.360    -386.166     690.519
  C     -263.099    -386.905     688.339
  O     -263.491    -388.242     688.762
  C     -263.971    -386.634     687.112
  O     -263.697    -385.469     686.362
  C     -263.873    -387.971     686.384
  O     -262.657    -388.058     685.623
  C     -263.860    -388.974     687.560
  N     -265.139    -389.665     687.710
  C     -265.247    -390.884     687.054
  O     -264.349    -391.375     686.375
  N     -266.464    -391.515     687.172
  C     -267.558    -391.040     687.819
  O     -268.622    -391.628     687.842
  C     -267.384    -389.731     688.484
  C     -266.204    -389.112     688.398
  O     -261.485    -385.466     692.880
  O     -262.853    -383.853     691.354
  H     -261.914    -388.109     686.257
  H     -263.511    -383.782     690.655
  H     -266.571    -392.394     686.690
  H     -268.236    -389.329     689.024
  H     -266.053    -388.140     688.889
  H     -263.074    -389.729     687.412
  H     -264.696    -388.105     685.679
  H     -265.011    -386.539     687.443
  H     -262.037    -386.951     688.073
  H     -263.085    -384.886     689.074
  H     -264.310    -385.903     689.852
  P     -264.746    -384.278     686.169
  C     -263.144    -382.262     685.825
  O     -264.067    -382.916     686.672
  O     -266.155    -384.551     686.595
  O     -264.714    -384.090     684.569
  H     -265.591    -383.784     684.270
  H     -262.755    -381.375     686.341
  H     -263.640    -381.926     684.902
  H     -262.313    -382.920     685.572
  H     -265.199    -386.937     693.659
  H     -263.644    -386.475     694.308
  H     -263.743    -387.701     693.067

 3  4  5  6  7  8  9  10  11  12  13  23  28  29  30  31  32 0
 6-311+G(2d,p)
 ****
 33  34 0
 6-311+G(2d,p)
 ****
 1  2  14  15  16  17  18  19  20  21  22  24  25  26  27 0
 3-21G
 ****
 35  36  37  38  39  40  41  42  43  44  45 0
 3-21G
 ****


