%nproc=1
%NoSave
%Mem=1900MB
#P OB98/GEN NMR

erre ene a

0 1
  C      -16.169      37.583      -0.776
  O      -15.439      38.393      -1.678
  H      -16.002      37.952       0.239
  H      -15.828      36.546      -0.836
  H      -17.237      37.641      -1.001
  P      -15.522      37.994      -3.230
  C      -13.114      37.172      -3.704
  O      -14.453      36.810      -3.394
  C      -12.278      37.263      -2.431
  O      -12.494      36.104      -1.608
  C      -10.775      37.342      -2.671
  O      -10.387      38.676      -2.952
  C      -10.242      36.880      -1.323
  O      -10.272      37.977      -0.390
  C      -11.262      35.808      -0.903
  N       -7.802      32.113      -0.054
  C       -7.798      33.429       0.244
  N       -8.724      34.363      -0.060
  C       -9.749      33.816      -0.735
  C       -9.889      32.489      -1.112
  C       -8.857      31.613      -0.737
  N       -8.864      30.270      -1.044
  N      -11.069      32.296      -1.798
  C      -11.658      33.473      -1.783
  N      -10.884      34.435      -1.185
  O      -15.408      39.124      -4.195
  O      -16.917      37.207      -3.268
  H       -9.948      38.763      -0.868
  H      -17.012      36.642      -2.481
  H       -6.932      33.782       0.797
  H      -12.649      33.679      -2.171
  H      -11.480      35.855       0.171
  H       -9.208      36.535      -1.376
  H      -10.450      36.639      -3.446
  H      -12.626      38.135      -1.861
  H      -13.095      38.134      -4.229
  H       -8.005      29.762      -0.909
  H       -9.587      29.931      -1.663
  H      -12.709      36.405      -4.372
  P       -9.204      38.994      -3.988
  C       -7.064      39.825      -2.831
  O       -7.853      38.693      -3.178
  O       -9.291      40.333      -4.633
  O       -9.268      37.792      -5.039
  H       -8.771      38.029      -5.846
  H       -6.194      39.503      -2.297
  H       -7.638      40.484      -2.214
  H       -6.766      40.339      -3.721

 6  7  8  9  10  11  12  13  14  15  25  28  32  33  34  35 0
 6-311+G(2d,p)
 ****
 36  39  40 0
 6-311+G(2d,p)
 ****
 1  2  3  4  5  16  17  18  19  20  21  22  23  24 0
 3-21G
 ****
 26  27  29  30  31  37  38  41  42  43  44  45  46  47 0
 3-21G
 ****
 48 0
 3-21G
 ****


