%nproc=1
%NoSave
%Mem=1900MB
#P OB98/GEN NMR

erre ene a

0 1
  C      -17.164    -117.416      47.807
  O      -17.851    -117.472      49.037
  H      -17.808    -117.830      47.028
  H      -16.251    -118.016      47.864
  H      -16.911    -116.387      47.541
  P      -17.277    -116.645      50.281
  C      -19.484    -115.396      50.761
  O      -18.122    -115.286      50.375
  C      -19.843    -114.327      51.800
  O      -20.072    -113.067      51.119
  C      -21.138    -114.676      52.540
  O      -21.173    -114.123      53.853
  C      -22.202    -113.998      51.691
  O      -23.407    -113.733      52.408
  C      -21.467    -112.741      51.232
  N      -24.936    -109.847      48.873
  C      -24.909    -110.283      50.183
  N      -25.940    -109.893      50.967
  N      -23.969    -111.050      50.672
  C      -23.042    -111.419      49.756
  C      -22.974    -111.071      48.427
  C      -24.002    -110.194      47.905
  O      -24.086    -109.797      46.748
  N      -21.892    -111.648      47.812
  C      -21.308    -112.347      48.764
  N      -21.954    -112.219      49.969
  O      -15.851    -116.130      49.765
  O      -17.154    -117.409      51.564
  H      -23.991    -113.220      51.818
  H      -15.272    -115.923      50.520
  H      -25.667    -109.235      48.555
  H      -20.414    -112.944      48.639
  H      -21.564    -111.942      51.978
  H      -22.458    -114.667      50.866
  H      -26.773    -109.475      50.580
  H      -21.312    -115.747      52.602
  H      -26.099    -110.446      51.814
  H      -19.001    -114.169      52.484
  H      -19.617    -116.397      51.179
  H      -20.134    -115.320      49.889
  P      -21.774    -115.010      55.042
  C      -19.597    -115.811      56.314
  O      -20.706    -116.106      55.495
  O      -22.923    -115.866      54.334
  O      -22.299    -114.218      56.199
  H      -23.797    -115.624      54.692
  H      -19.029    -116.702      56.480
  H      -19.939    -115.426      57.252
  H      -18.982    -115.081      55.832

 6  7  8  9  10  11  12  13  14  15  26  29  33  34 0
 6-311+G(2d,p)
 ****
 36  38  39  40  41 0
 6-311+G(2d,p)
 ****
 1  2  3  4  5  16  17  18  19  20  21  22  23  24  25 0
 3-21G
 ****
 27  28  30  31  32  35  37  42  43  44  45  46  47 0
 3-21G
 ****
 48  49 0
 3-21G
 ****


