%nproc=1
%NoSave
%Mem=1900MB
#P OB98/GEN NMR

erre ene a

0 1
  C     -155.421     146.293      73.047
  O     -155.181     146.115      71.652
  P     -155.412     147.379      70.695
  C     -157.636     146.483      69.630
  O     -156.985     147.483      70.390
  C     -158.911     147.038      68.965
  O     -159.885     147.317      70.004
  C     -158.736     148.352      68.212
  O     -159.840     148.520      67.320
  C     -158.832     149.365      69.331
  O     -159.105     150.673      68.836
  C     -159.918     148.751      70.244
  N     -159.713     149.031      71.681
  C     -159.821     150.349      72.121
  O     -160.076     151.300      71.379
  N     -159.586     150.563      73.451
  C     -159.302     149.604      74.376
  O     -159.012     149.861      75.540
  C     -159.339     148.220      73.889
  C     -159.527     148.000      72.586
  O     -154.772     146.920      69.304
  O     -154.802     148.643      71.207
  H     -158.549     150.788      68.032
  H     -153.917     147.370      69.164
  H     -159.596     151.520      73.770
  H     -159.181     147.425      74.609
  H     -159.535     146.981      72.207
  H     -160.914     149.124      69.974
  H     -157.878     149.416      69.866
  H     -157.795     148.438      67.660
  H     -159.340     146.270      68.310
  H     -157.881     145.629      70.265
  H     -156.957     146.109      68.852
  P     -159.523     148.732      65.762
  C     -159.695     151.283      66.029
  O     -158.884     150.197      65.626
  O     -160.639     148.422      64.818
  O     -158.261     147.774      65.521
  H     -158.168     147.586      64.569
  H     -159.049     152.091      66.382
  H     -160.379     150.995      66.833
  H     -160.273     151.638      65.172
  H     -155.229     145.375      73.562
  H     -156.440     146.581      73.200
  H     -154.774     147.057      73.426

 3  4  5  6  7  8  9  10  11  12  13  23  28  29  30  31  32 0
 6-311+G(2d,p)
 ****
 33  34 0
 6-311+G(2d,p)
 ****
 1  2  14  15  16  17  18  19  20  21  22  24  25  26  27 0
 3-21G
 ****
 35  36  37  38  39  40  41  42  43  44  45 0
 3-21G
 ****


