%nproc=1
%NoSave
%Mem=1900MB
#P OB98/GEN NMR

erre ene a

0 1
  C      197.349    -168.718     192.268
  O      196.305    -168.476     191.309
  P      196.129    -169.327     189.962
  C      193.852    -169.974     188.916
  O      194.729    -168.918     189.293
  C      192.438    -169.438     188.642
  O      191.862    -168.909     189.865
  C      192.361    -168.273     187.659
  O      192.566    -168.687     186.322
  C      190.959    -167.746     187.947
  O      189.960    -168.473     187.223
  C      190.802    -168.005     189.459
  N      190.821    -166.789     190.251
  C      189.819    -165.849     189.975
  O      189.035    -166.032     189.049
  N      189.751    -164.717     190.758
  C      190.664    -164.494     191.653
  N      190.534    -163.369     192.404
  C      191.809    -165.399     191.887
  C      191.820    -166.516     191.160
  O      196.297    -170.802     190.144
  O      197.222    -168.745     188.945
  H      197.468    -169.432     188.303
  H      189.861    -169.342     187.666
  H      192.562    -165.158     192.615
  H      192.616    -167.239     191.276
  H      189.871    -168.552     189.650
  H      190.855    -166.689     187.669
  H      193.103    -167.519     187.938
  H      191.816    -170.274     188.297
  H      189.726    -162.777     192.228
  H      193.805    -170.697     189.736
  H      191.172    -163.115     193.143
  H      194.254    -170.477     188.027
  P      193.740    -167.962     185.512
  C      194.758    -168.287     183.142
  O      193.618    -168.395     183.975
  O      195.069    -168.709     186.015
  O      193.834    -166.489     185.739
  H      195.792    -168.067     186.115
  H      194.676    -169.023     182.342
  H      195.684    -168.458     183.697
  H      194.782    -167.285     182.699
  H      197.257    -168.024     193.078
  H      198.302    -168.593     191.797
  H      197.265    -169.717     192.643

 3  4  5  6  7  8  9  10  11  12  13  24  27  28  29  30  32 0
 6-311+G(2d,p)
 ****
 34  35 0
 6-311+G(2d,p)
 ****
 1  2  14  15  16  17  18  19  20  21  22  23  25  26 0
 3-21G
 ****
 31  33  36  37  38  39  40  41  42  43  44  45  46 0
 3-21G
 ****


