%nproc=1
%NoSave
%Mem=1900MB
#P OB98/GEN NMR

erre ene a

0 1
  C      340.627     293.321     -71.450
  O      340.727     294.686     -71.804
  H      341.589     292.992     -71.039
  H      340.408     292.724     -72.338
  H      339.851     293.164     -70.694
  P      339.396     295.493     -72.163
  C      339.435     294.721     -74.633
  O      338.724     294.714     -73.401
  C      338.517     294.290     -75.775
  O      338.124     292.903     -75.553
  C      337.230     295.135     -75.875
  O      336.861     295.250     -77.252
  C      336.230     294.253     -75.141
  O      334.901     294.572     -75.469
  C      336.682     292.864     -75.597
  N      336.124     291.815     -74.754
  C      334.805     291.444     -75.006
  O      334.107     291.949     -75.878
  N      334.281     290.499     -74.162
  C      334.890     289.992     -73.050
  O      334.337     289.206     -72.287
  C      336.266     290.463     -72.804
  C      336.808     291.332     -73.655
  O      339.556     296.968     -72.373
  O      338.385     295.155     -70.969
  H      334.293     293.929     -75.060
  H      337.685     295.832     -70.913
  H      333.326     290.207     -74.336
  H      336.771     290.086     -71.925
  H      337.812     291.714     -73.492
  H      336.390     292.679     -76.645
  H      336.345     294.365     -74.062
  H      337.326     296.125     -75.428
  H      339.076     294.322     -76.718
  H      340.274     294.018     -74.542
  H      339.833     295.727     -74.819
  P      336.830     296.678     -78.008
  C      334.483     297.023     -77.023
  O      335.721     297.638     -77.350
  O      336.742     296.570     -79.494
  O      338.214     297.366     -77.588
  H      338.629     297.755     -78.384
  H      333.826     297.750     -76.595
  H      334.651     296.235     -76.318
  H      334.040     296.620     -77.910

 6  7  8  9  10  11  12  13  14  15  16  26  31  32  33  34  35 0
 6-311+G(2d,p)
 ****
 36  37 0
 6-311+G(2d,p)
 ****
 1  2  3  4  5  17  18  19  20  21  22  23  24  25 0
 3-21G
 ****
 27  28  29  30  38  39  40  41  42  43  44  45 0
 3-21G
 ****


