%nproc=1
%NoSave
%Mem=1900MB
#P OB98/GEN NMR

erre ene a

0 1
  C        7.445     -94.636    -128.879
  O        8.819     -94.926    -128.719
  H        7.082     -94.072    -128.017
  H        7.318     -94.027    -129.778
  H        6.868     -95.558    -128.993
  P        9.209     -95.957    -127.554
  C        9.826     -94.375    -125.586
  O        8.844     -95.216    -126.176
  C        9.190     -93.069    -125.107
  O        8.249     -93.371    -124.043
  C       10.205     -92.062    -124.558
  O        9.812     -90.747    -124.955
  C       10.071     -92.209    -123.052
  O       10.473     -91.035    -122.357
  C        8.589     -92.546    -122.913
  N        8.773     -92.201    -117.822
  C        9.023     -91.302    -118.798
  N        8.944     -91.473    -120.134
  C        8.513     -92.713    -120.428
  C        8.220     -93.736    -119.543
  C        8.374     -93.446    -118.177
  N        8.156     -94.366    -117.178
  N        7.843     -94.875    -120.229
  C        7.908     -94.542    -121.503
  N        8.312     -93.247    -121.672
  O       10.812     -95.922    -127.588
  O        8.676     -97.341    -127.707
  H       10.150     -91.098    -121.435
  H       11.132     -96.484    -128.318
  H        9.334     -90.317    -118.462
  H        7.685     -95.196    -122.334
  H        7.952     -91.652    -122.930
  H       10.694     -93.042    -122.705
  H       11.223     -92.256    -124.901
  H        8.610     -92.639    -125.931
  H       10.598     -94.154    -126.331
  H        8.346     -94.089    -116.229
  H        7.918     -95.315    -117.426
  H       10.285     -94.896    -124.739
  P       10.944     -89.826    -125.623
  C       11.399     -88.237    -123.627
  O       11.902     -89.270    -124.462
  O       10.133     -88.531    -126.100
  O       11.648     -90.480    -126.768
  H       10.347     -88.327    -127.030
  H       12.142     -87.969    -122.905
  H       10.520     -88.582    -123.124
  H       11.157     -87.382    -124.224

 6  7  8  9  10  11  12  13  14  15  25  28  32  33  34  35 0
 6-311+G(2d,p)
 ****
 36  39  40 0
 6-311+G(2d,p)
 ****
 1  2  3  4  5  16  17  18  19  20  21  22  23  24 0
 3-21G
 ****
 26  27  29  30  31  37  38  41  42  43  44  45  46  47 0
 3-21G
 ****
 48 0
 3-21G
 ****


