%nproc=1
%NoSave
%Mem=1900MB
#P OB98/GEN NMR

erre ene a

0 1
  C     -486.749    1155.754     749.097
  O     -487.177    1157.067     749.400
  H     -487.166    1155.458     748.134
  H     -487.113    1155.056     749.863
  H     -485.655    1155.699     749.036
  P     -486.556    1157.810     750.669
  C     -488.679    1159.182     751.213
  O     -487.312    1159.215     750.794
  C     -489.396    1160.481     750.800
  O     -488.659    1161.614     751.356
  C     -489.488    1160.696     749.283
  O     -490.689    1161.455     749.031
  C     -488.242    1161.535     749.033
  O     -488.232    1162.120     747.759
  C     -488.343    1162.486     750.247
  N     -487.158    1163.264     750.527
  C     -486.975    1164.458     749.832
  O     -487.764    1164.891     748.994
  N     -485.831    1165.154     750.113
  C     -484.881    1164.797     751.024
  O     -483.895    1165.477     751.265
  C     -485.112    1163.531     751.722
  C     -486.224    1162.838     751.459
  O     -485.064    1157.890     750.721
  O     -487.138    1156.976     751.915
  H     -486.453    1156.375     752.260
  H     -489.118    1162.509     747.573
  H     -485.689    1166.017     749.622
  H     -484.372    1163.207     752.446
  H     -486.420    1161.906     751.962
  H     -489.203    1163.161     750.120
  H     -487.350    1160.919     749.101
  H     -489.518    1159.765     748.708
  H     -490.388    1160.488     751.264
  H     -488.704    1159.070     752.299
  H     -489.167    1158.318     750.751
  P     -491.915    1160.892     748.154
  C     -492.485    1163.386     747.806
  O     -492.983    1162.071     747.988
  O     -492.491    1159.612     748.674
  O     -491.321    1160.684     746.688
  H     -491.840    1159.990     746.218
  H     -493.304    1164.067     747.710
  H     -491.886    1163.421     746.920
  H     -491.889    1163.662     748.651

 6  7  8  9  10  11  12  13  14  15  16  27  31  32  33  34  35 0
 6-311+G(2d,p)
 ****
 36  37 0
 6-311+G(2d,p)
 ****
 1  2  3  4  5  17  18  19  20  21  22  23  24  25 0
 3-21G
 ****
 26  28  29  30  38  39  40  41  42  43  44  45 0
 3-21G
 ****


