%nproc=1
%NoSave
%Mem=1900MB
#P OB98/GEN NMR

erre ene a

0 1
  C     -411.007     429.793    -297.607
  O     -412.264     430.402    -297.853
  P     -413.417     429.492    -298.495
  C     -414.572     429.657    -300.822
  O     -413.354     429.711    -300.086
  C     -414.416     430.371    -302.172
  O     -414.234     431.796    -301.933
  C     -413.230     429.890    -303.025
  O     -413.644     429.981    -304.396
  C     -412.170     430.929    -302.697
  O     -411.100     430.959    -303.622
  C     -413.032     432.186    -302.641
  N     -409.925     436.217    -303.227
  C     -410.456     435.344    -304.125
  N     -411.282     434.300    -303.893
  C     -411.554     434.209    -302.575
  C     -411.084     434.999    -301.551
  C     -410.224     436.049    -301.907
  N     -409.676     436.929    -301.008
  N     -411.570     434.568    -300.330
  C     -412.322     433.529    -300.616
  N     -412.376     433.288    -301.966
  O     -414.762     430.266    -298.088
  O     -413.432     428.067    -298.039
  H     -410.471     431.667    -303.387
  H     -415.468     429.635    -297.849
  H     -410.175     435.513    -305.166
  H     -412.860     432.924    -299.894
  H     -413.329     432.536    -303.637
  H     -411.738     430.701    -301.728
  H     -412.933     428.856    -302.796
  H     -415.357     430.256    -302.725
  H     -415.353     430.158    -300.259
  H     -408.919     437.519    -301.336
  H     -409.734     436.668    -300.020
  H     -414.863     428.611    -300.961
  P     -412.636     429.460    -305.539
  C     -410.992     430.680    -307.089
  O     -411.784     430.763    -305.927
  O     -413.634     429.341    -306.781
  O     -411.866     428.210    -305.224
  H     -414.149     430.149    -306.907
  H     -410.549     431.663    -307.289
  H     -411.611     430.392    -307.952
  H     -410.187     429.946    -306.946
  H     -410.339     430.512    -297.181
  H     -410.600     429.430    -298.528
  H     -411.133     428.977    -296.927

 3  4  5  6  7  8  9  10  11  12  22  25  29  30  31  32 0
 6-311+G(2d,p)
 ****
 33  36  37 0
 6-311+G(2d,p)
 ****
 1  2  13  14  15  16  17  18  19  20  21  23  24  26 0
 3-21G
 ****
 27  28  34  35  38  39  40  41  42  43  44  45  46  47  48 0
 3-21G
 ****


