%nproc=1
%NoSave
%Mem=1900MB
#P OB98/GEN NMR

erre ene a

0 1
  C      123.451     433.546     -41.262
  O      124.196     433.176     -40.115
  P      123.987     431.744     -39.434
  C      123.909     432.696     -37.057
  O      124.594     431.824     -37.947
  C      124.744     432.988     -35.812
  O      124.675     431.842     -34.917
  C      126.230     433.267     -36.085
  O      126.654     434.223     -35.109
  C      126.880     431.923     -35.796
  O      128.270     432.028     -35.524
  C      126.032     431.459     -34.617
  N      128.557     427.683     -32.272
  C      128.771     429.014     -32.317
  N      128.068     429.953     -32.986
  C      127.049     429.392     -33.655
  C      126.722     428.047     -33.729
  C      127.522     427.167     -32.977
  N      127.297     425.810     -32.891
  N      125.639     427.860     -34.566
  C      125.320     429.066     -34.986
  N      126.105     430.031     -34.413
  O      124.465     430.580     -40.237
  O      122.412     431.660     -39.176
  H      128.729     432.272     -36.349
  H      122.002     431.049     -39.820
  H      129.616     429.377     -31.739
  H      124.543     429.298     -35.701
  H      126.323     431.950     -33.678
  H      126.753     431.261     -36.662
  H      126.434     433.626     -37.097
  H      124.285     433.834     -35.285
  H      122.974     432.211     -36.761
  H      127.846     425.297     -32.223
  H      126.389     425.446     -33.182
  H      123.661     433.633     -37.573
  P      127.355     435.587     -35.581
  C      129.665     435.127     -34.572
  O      128.489     435.912     -34.499
  O      126.426     436.709     -35.896
  O      128.204     435.142     -36.870
  H      128.443     435.930     -37.390
  H      129.487     434.161     -34.087
  H      130.473     435.646     -34.052
  H      129.958     434.957     -35.611
  H      123.731     434.533     -41.566
  H      122.407     433.527     -41.030
  H      123.653     432.857     -42.056

 3  4  5  6  7  8  9  10  11  12  22  25  29  30  31  32 0
 6-311+G(2d,p)
 ****
 33  36  37 0
 6-311+G(2d,p)
 ****
 1  2  13  14  15  16  17  18  19  20  21  23  24  26 0
 3-21G
 ****
 27  28  34  35  38  39  40  41  42  43  44  45  46  47  48 0
 3-21G
 ****


