%nproc=1
%NoSave
%Mem=1900MB
#P OB98/GEN NMR

erre ene a

0 1
  C       24.616     -83.991      29.544
  O       24.445     -83.192      28.393
  H       25.306     -83.484      30.224
  H       25.046     -84.958      29.270
  H       23.664     -84.140      30.060
  P       23.340     -83.617      27.314
  C       20.770     -83.818      27.455
  O       21.928     -83.111      27.876
  C       19.511     -82.967      27.654
  O       19.358     -82.689      29.080
  C       19.547     -81.605      26.931
  O       18.192     -81.270      26.603
  C       20.088     -80.711      28.033
  O       19.970     -79.345      27.727
  C       19.276     -81.254      29.216
  N       19.735     -80.835      30.534
  C       19.505     -79.515      30.911
  O       18.937     -78.678      30.212
  N       19.962     -79.163      32.154
  C       20.596     -79.984      33.039
  O       20.955     -79.620      34.152
  C       20.818     -81.364      32.582
  C       20.380     -81.723      31.374
  O       23.374     -85.043      26.878
  O       23.609     -82.621      26.087
  H       24.098     -83.091      25.386
  H       19.019     -79.112      27.664
  H       19.800     -78.213      32.445
  H       21.329     -82.038      33.255
  H       20.520     -82.736      31.013
  H       18.222     -80.982      29.102
  H       21.155     -80.896      28.173
  H       20.151     -81.620      26.021
  H       18.636     -83.553      27.350
  H       20.694     -84.734      28.051
  H       20.878     -84.088      26.400
  P       17.651     -81.151      25.096
  C       17.807     -82.769      23.080
  O       17.571     -82.631      24.477
  O       18.419     -80.189      24.251
  O       16.119     -80.707      25.230
  H       15.848     -80.226      24.426
  H       17.723     -83.799      22.804
  H       18.790     -82.417      22.848
  H       17.085     -82.195      22.538

 6  7  8  9  10  11  12  13  14  15  16  27  31  32  33  34  35 0
 6-311+G(2d,p)
 ****
 36  37 0
 6-311+G(2d,p)
 ****
 1  2  3  4  5  17  18  19  20  21  22  23  24  25 0
 3-21G
 ****
 26  28  29  30  38  39  40  41  42  43  44  45 0
 3-21G
 ****


