%nproc=1
%NoSave
%Mem=1900MB
#P OB98/GEN NMR

erre ene a

0 1
  C     -189.039      81.004     -16.454
  O     -188.979      82.327     -16.963
  P     -189.937      82.699     -18.198
  C     -189.974      82.063     -20.729
  O     -189.479      81.775     -19.430
  C     -189.963      80.808     -21.601
  O     -190.875      79.833     -21.019
  C     -190.401      81.022     -23.054
  O     -189.667      80.087     -23.857
  C     -191.869      80.635     -23.033
  O     -192.369      80.297     -24.325
  C     -191.839      79.479     -22.036
  N     -196.070      76.699     -22.167
  C     -194.982      76.700     -23.028
  N     -195.008      75.787     -24.019
  N     -193.965      77.517     -22.915
  C     -194.076      78.362     -21.858
  C     -195.117      78.480     -20.964
  C     -196.215      77.544     -21.076
  O     -197.154      77.453     -20.289
  N     -194.910      79.515     -20.086
  C     -193.709      79.962     -20.397
  N     -193.142      79.266     -21.433
  O     -189.429      84.158     -18.614
  O     -191.408      82.660     -17.918
  H     -192.276      81.084     -24.900
  H     -189.966      84.853     -18.183
  H     -196.811      76.029     -22.290
  H     -193.197      80.778     -19.909
  H     -191.528      78.536     -22.493
  H     -192.468      81.473     -22.652
  H     -195.742      75.110     -24.149
  H     -190.237      82.042     -23.414
  H     -194.205      75.747     -24.646
  H     -188.954      80.364     -21.565
  H     -189.324      82.813     -21.195
  H     -190.987      82.478     -20.653
  P     -189.417      80.458     -25.400
  C     -190.863      80.660     -27.539
  O     -190.832      80.432     -26.142
  O     -188.681      79.147     -25.964
  O     -188.575      81.671     -25.619
  H     -188.057      79.400     -26.664
  H     -191.787      80.223     -27.944
  H     -190.009      80.196     -28.040
  H     -190.862      81.736     -27.733
  H     -188.352      80.903     -15.640
  H     -188.779      80.312     -17.228
  H     -190.031      80.799     -16.110

 3  4  5  6  7  8  9  10  11  12  23  26  30  31 0
 6-311+G(2d,p)
 ****
 33  35  36  37  38 0
 6-311+G(2d,p)
 ****
 1  2  13  14  15  16  17  18  19  20  21  22  24  25 0
 3-21G
 ****
 27  28  29  32  34  39  40  41  42  43  44  45  46  47  48  49 0
 3-21G
 ****


