%nproc=1
%NoSave
%Mem=1900MB
#P OB98/GEN NMR

erre ene a

0 1
  C     -190.489     734.342    -242.754
  O     -189.385     735.200    -242.956
  H     -190.412     733.897    -241.758
  H     -190.487     733.544    -243.497
  H     -191.423     734.908    -242.816
  P     -189.305     735.957    -244.369
  C     -187.884     737.882    -243.364
  O     -187.960     736.842    -244.328
  C     -187.243     737.369    -242.075
  O     -185.936     736.818    -242.386
  C     -187.049     738.458    -241.005
  O     -187.300     737.882    -239.717
  C     -185.570     738.789    -241.120
  O     -185.055     739.360    -239.921
  C     -184.999     737.415    -241.463
  N     -180.168     738.323    -240.387
  C     -181.272     738.248    -239.559
  N     -181.064     738.460    -238.238
  N     -182.481     738.004    -239.988
  C     -182.543     737.791    -241.326
  C     -181.525     737.839    -242.252
  C     -180.194     738.138    -241.765
  O     -179.182     738.236    -242.446
  N     -182.003     737.602    -243.519
  C     -183.297     737.405    -243.355
  N     -183.672     737.509    -242.047
  O     -190.468     737.054    -244.271
  O     -189.450     735.090    -245.573
  H     -184.109     739.563    -240.070
  H     -190.838     737.247    -245.152
  H     -179.264     738.526    -240.000
  H     -184.002     737.194    -244.151
  H     -184.918     736.764    -240.585
  H     -185.406     739.497    -241.937
  H     -180.157     738.624    -237.833
  H     -187.686     739.332    -241.150
  H     -181.862     738.400    -237.616
  H     -187.850     736.541    -241.689
  H     -188.894     738.246    -243.151
  H     -187.290     738.705    -243.772
  P     -188.326     738.647    -238.752
  C     -188.586     736.571    -237.215
  O     -188.282     737.958    -237.301
  O     -189.754     738.206    -239.334
  O     -188.173     740.134    -238.760
  H     -190.167     738.958    -239.788
  H     -188.517     736.253    -236.196
  H     -187.891     736.016    -237.809
  H     -189.579     736.400    -237.575

 6  7  8  9  10  11  12  13  14  15  26  29  33  34 0
 6-311+G(2d,p)
 ****
 36  38  39  40  41 0
 6-311+G(2d,p)
 ****
 1  2  3  4  5  16  17  18  19  20  21  22  23  24  25 0
 3-21G
 ****
 27  28  30  31  32  35  37  42  43  44  45  46  47 0
 3-21G
 ****
 48  49 0
 3-21G
 ****


