%nproc=1
%NoSave
%Mem=1900MB
#P OB98/GEN NMR

erre ene a

0 1
  C     -149.216     -11.418      49.694
  O     -149.498     -10.779      48.463
  H     -149.621     -12.434      49.664
  H     -149.683     -10.885      50.527
  H     -148.136     -11.475      49.852
  P     -149.141      -9.223      48.319
  C     -147.267      -9.586      46.572
  O     -147.598      -9.174      47.894
  C     -146.706      -8.408      45.782
  O     -145.632      -7.783      46.513
  C     -146.115      -8.813      44.440
  O     -147.134      -9.075      43.497
  C     -145.238      -7.613      44.140
  O     -146.008      -6.522      43.620
  C     -144.683      -7.277      45.545
  N     -143.354      -7.832      45.774
  C     -142.552      -7.147      46.693
  O     -142.976      -6.142      47.262
  N     -141.281      -7.611      46.923
  C     -140.855      -8.668      46.309
  N     -139.586      -9.074      46.583
  C     -141.672      -9.427      45.344
  C     -142.897      -8.955      45.123
  O     -149.491      -8.340      49.476
  O     -149.899      -8.787      46.978
  H     -146.293      -6.799      42.727
  H     -150.803      -8.481      47.181
  H     -141.277     -10.307      44.859
  H     -143.565      -9.455      44.429
  H     -144.632      -6.191      45.689
  H     -144.467      -7.853      43.410
  H     -145.465      -9.685      44.562
  H     -147.504      -7.665      45.655
  H     -139.057      -8.516      47.245
  H     -148.188      -9.949      46.106
  H     -139.180      -9.928      46.234
  H     -146.542     -10.407      46.593
  P     -147.416     -10.572      42.997
  C     -149.596     -10.803      44.356
  O     -148.259     -11.263      44.176
  O     -146.215     -11.328      42.538
  O     -148.515     -10.368      41.848
  H     -148.111      -9.998      41.025
  H     -150.050     -11.335      45.165
  H     -150.155     -10.972      43.459
  H     -149.586      -9.756      44.578

 6  7  8  9  10  11  12  13  14  15  16  26  30  31  32  33  35 0
 6-311+G(2d,p)
 ****
 37  38 0
 6-311+G(2d,p)
 ****
 1  2  3  4  5  17  18  19  20  21  22  23  24  25 0
 3-21G
 ****
 27  28  29  34  36  39  40  41  42  43  44  45  46 0
 3-21G
 ****


