%nproc=1
%NoSave
%Mem=1900MB
#P OB98/GEN NMR

erre ene a

0 1
  C      284.658      44.480     130.390
  O      285.793      44.757     131.216
  P      286.809      45.893     130.715
  C      286.288      47.753     132.466
  O      286.208      47.326     131.108
  C      286.763      49.203     132.533
  O      288.189      49.295     132.368
  C      286.178      50.077     131.437
  O      284.846      50.439     131.742
  C      287.148      51.251     131.415
  O      286.735      52.294     132.314
  C      288.478      50.618     131.883
  N      289.486      50.589     130.836
  C      290.568      51.458     131.007
  O      290.619      52.203     131.989
  N      291.551      51.475     130.051
  C      291.449      50.715     129.006
  N      292.449      50.779     128.091
  C      290.309      49.804     128.775
  C      289.371      49.793     129.722
  O      286.651      45.850     129.124
  O      288.225      45.666     131.134
  H      285.873      52.611     131.976
  H      287.499      46.073     128.695
  H      290.261      49.197     127.884
  H      288.497      49.157     129.637
  H      288.890      51.176     132.733
  H      287.208      51.704     130.420
  H      286.219      49.546     130.475
  H      286.493      49.614     133.518
  H      293.215      51.416     128.278
  H      286.969      47.110     133.023
  H      292.468      50.238     127.237
  H      285.300      47.637     132.930
  P      283.707      50.063     130.681
  C      283.070      48.185     132.308
  O      283.361      48.523     130.966
  O      284.544      49.966     129.316
  O      282.551      50.996     130.562
  H      283.941      49.835     128.563
  H      282.653      47.174     132.329
  H      282.332      48.875     132.731
  H      283.985      48.201     132.905
  H      284.070      43.708     130.840
  H      284.989      44.159     129.424
  H      284.066      45.366     130.288

 3  4  5  6  7  8  9  10  11  12  13  21  23  27  28  29  30  32 0
 6-311+G(2d,p)
 ****
 34  35 0
 6-311+G(2d,p)
 ****
 1  2  14  15  16  17  18  19  20  22  24  25  26 0
 3-21G
 ****
 31  33  36  37  38  39  40  41  42  43  44  45  46 0
 3-21G
 ****


