%nproc=1
%NoSave
%Mem=1900MB
#P OB98/GEN NMR

erre ene a

0 1
  C     -225.941      89.761     -17.524
  O     -225.543      88.781     -16.592
  H     -225.344      90.662     -17.355
  H     -226.995      90.016     -17.393
  H     -225.763      89.412     -18.544
  P     -226.387      87.417     -16.488
  C     -226.675      88.094     -14.028
  O     -226.356      87.033     -14.921
  C     -226.006      87.901     -12.667
  O     -226.653      86.814     -11.954
  C     -224.511      87.573     -12.753
  O     -223.791      88.382     -11.820
  C     -224.438      86.108     -12.347
  O     -223.157      85.754     -11.835
  C     -225.609      86.019     -11.359
  N     -226.044      84.649     -11.114
  C     -225.559      84.040      -9.954
  O     -224.777      84.640      -9.216
  N     -225.938      82.751      -9.673
  C     -226.694      82.106     -10.506
  N     -227.028      80.830     -10.177
  C     -227.191      82.697     -11.768
  C     -226.837      83.960     -12.002
  O     -225.938      86.334     -17.408
  O     -227.905      87.866     -16.716
  H     -222.914      86.397     -11.133
  H     -228.443      87.079     -16.983
  H     -227.810      82.116     -12.435
  H     -227.163      84.477     -12.898
  H     -225.340      86.475     -10.397
  H     -224.642      85.477     -13.221
  H     -224.090      87.733     -13.742
  H     -226.182      88.802     -12.066
  H     -226.668      80.466      -9.303
  H     -227.764      88.140     -13.916
  H     -227.605      80.234     -10.752
  H     -226.320      89.032     -14.472
  P     -223.182      89.753     -12.396
  C     -220.868      89.929     -11.245
  O     -222.216      90.375     -11.274
  O     -224.445      90.738     -12.404
  O     -222.578      89.616     -13.754
  H     -224.813      90.805     -13.303
  H     -220.346      90.424     -10.453
  H     -220.397      90.155     -12.179
  H     -220.846      88.872     -11.081

 6  7  8  9  10  11  12  13  14  15  16  26  30  31  32  33  35 0
 6-311+G(2d,p)
 ****
 37  38 0
 6-311+G(2d,p)
 ****
 1  2  3  4  5  17  18  19  20  21  22  23  24  25 0
 3-21G
 ****
 27  28  29  34  36  39  40  41  42  43  44  45  46 0
 3-21G
 ****


