%nproc=1
%NoSave
%Mem=1900MB
#P OB98/GEN NMR

erre ene a

0 1
  C       95.728     124.248     -12.346
  O       95.498     124.746     -13.666
  P       94.430     125.935     -13.813
  C       95.152     127.042     -16.043
  O       94.200     126.227     -15.375
  C       96.327     126.219     -16.587
  O       95.853     125.040     -17.290
  C       97.219     126.997     -17.557
  O       98.558     126.526     -17.379
  C       96.722     126.544     -18.916
  O       97.703     126.769     -19.926
  C       96.402     125.068     -18.624
  N       95.489     124.475     -19.598
  C       96.054     123.675     -20.593
  O       97.278     123.550     -20.668
  N       95.228     123.069     -21.506
  C       93.951     123.287     -21.460
  N       93.185     122.660     -22.394
  C       93.316     124.171     -20.464
  C       94.138     124.721     -19.572
  O       95.233     127.221     -13.300
  O       93.182     125.719     -13.018
  H       98.537     126.336     -19.643
  H       94.700     127.707     -12.644
  H       92.249     124.340     -20.478
  H       93.767     125.382     -18.802
  H       97.322     124.468     -18.619
  H       95.810     127.088     -19.187
  H       97.185     128.079     -17.410
  H       96.923     125.874     -15.735
  H       93.656     122.055     -23.056
  H       95.536     127.800     -15.357
  H       92.183     122.759     -22.453
  H       94.650     127.588     -16.847
  P       99.679     127.579     -16.930
  C      101.377     126.088     -15.710
  O      101.047     126.741     -16.920
  O       99.381     127.716     -15.358
  O       99.710     128.914     -17.594
  H       99.962     128.395     -14.972
  H      102.255     125.461     -15.879
  H      100.548     125.454     -15.380
  H      101.617     126.826     -14.940
  H       96.455     123.464     -12.382
  H       94.813     123.867     -11.944
  H       96.088     125.040     -11.724

 3  4  5  6  7  8  9  10  11  12  13  21  23  27  28  29  30  32 0
 6-311+G(2d,p)
 ****
 34  35 0
 6-311+G(2d,p)
 ****
 1  2  14  15  16  17  18  19  20  22  24  25  26 0
 3-21G
 ****
 31  33  36  37  38  39  40  41  42  43  44  45  46 0
 3-21G
 ****


