%nproc=1
%NoSave
%Mem=1900MB
#P OB98/GEN NMR

erre ene a

0 1
  C      188.718     241.467     225.906
  O      187.547     241.891     226.580
  H      188.534     240.482     225.469
  H      189.552     241.391     226.609
  H      188.968     242.169     225.106
  P      187.625     243.313     227.315
  C      185.591     242.541     228.731
  O      186.167     243.573     227.941
  C      184.091     242.767     228.891
  O      183.830     244.037     229.525
  C      183.312     242.767     227.580
  O      183.010     241.448     227.161
  C      182.070     243.555     227.975
  O      181.115     242.725     228.668
  C      182.650     244.620     228.915
  N      180.776     248.714     226.625
  C      180.130     247.661     227.242
  N      178.776     247.677     227.193
  N      180.747     246.678     227.839
  C      182.095     246.779     227.778
  C      182.851     247.780     227.214
  C      182.156     248.876     226.578
  O      182.671     249.870     226.073
  N      184.193     247.535     227.369
  C      184.246     246.376     227.996
  N      182.998     245.866     228.249
  O      187.692     244.359     226.102
  O      188.770     243.490     228.254
  H      180.799     242.030     228.067
  H      188.204     245.140     226.382
  H      180.247     249.451     226.194
  H      185.153     245.863     228.286
  H      181.958     244.878     229.724
  H      181.553     243.961     227.101
  H      178.280     248.201     226.483
  H      183.857     243.316     226.801
  H      178.296     246.901     227.624
  H      183.710     241.987     229.561
  H      186.061     242.541     229.718
  H      185.775     241.575     228.250
  P      182.774     241.202     225.589
  C      180.527     239.937     225.952
  O      181.866     239.883     225.472
  O      184.206     240.708     225.073
  O      182.287     242.394     224.837
  H      184.258     240.787     224.101
  H      180.057     238.987     225.804
  H      179.986     240.690     225.417
  H      180.531     240.175     226.995

 6  7  8  9  10  11  12  13  14  15  26  29  33  34 0
 6-311+G(2d,p)
 ****
 36  38  39  40  41 0
 6-311+G(2d,p)
 ****
 1  2  3  4  5  16  17  18  19  20  21  22  23  24  25 0
 3-21G
 ****
 27  28  30  31  32  35  37  42  43  44  45  46  47 0
 3-21G
 ****
 48  49 0
 3-21G
 ****


