%nproc=1
%NoSave
%Mem=1900MB
#P OB98/GEN NMR

erre ene a

0 1
  C     -758.546     322.960      68.068
  O     -757.369     322.602      68.772
  P     -757.006     323.440      70.094
  C     -757.707     321.622      71.815
  O     -757.974     322.906      71.265
  C     -757.380     321.730      73.307
  O     -756.123     322.446      73.460
  C     -758.437     322.470      74.140
  O     -758.468     321.839      75.425
  C     -757.845     323.867      74.224
  O     -758.413     324.670      75.248
  C     -756.374     323.533      74.380
  N     -753.025     326.846      76.370
  C     -753.664     325.791      76.904
  N     -754.536     324.947      76.312
  C     -754.720     325.277      75.020
  C     -754.144     326.340      74.341
  C     -753.257     327.150      75.073
  N     -752.609     328.239      74.516
  N     -754.588     326.375      73.033
  C     -755.414     325.358      72.925
  N     -755.508     324.657      74.097
  O     -757.591     324.890      69.777
  O     -755.549     323.482      70.433
  H     -758.076     325.586      75.189
  H     -757.003     325.593      70.113
  H     -753.456     325.587      77.950
  H     -755.978     325.102      72.042
  H     -756.135     323.175      75.397
  H     -758.029     324.387      73.275
  H     -759.443     322.430      73.701
  H     -757.230     320.716      73.704
  H     -756.842     321.181      71.309
  H     -752.157     328.867      75.164
  H     -752.949     328.571      73.624
  H     -758.569     320.968      71.647
  P     -759.831     321.851      76.265
  C     -760.255     319.324      76.412
  O     -760.609     320.530      75.769
  O     -760.652     323.009      75.505
  O     -759.695     322.055      77.729
  H     -760.659     322.859      74.544
  H     -760.914     318.529      76.048
  H     -760.372     319.416      77.497
  H     -759.222     319.053      76.169
  H     -758.660     322.322      67.216
  H     -758.473     323.977      67.745
  H     -759.394     322.851      68.712

 3  4  5  6  7  8  9  10  11  12  22  25  29  30  31  32 0
 6-311+G(2d,p)
 ****
 33  36  37 0
 6-311+G(2d,p)
 ****
 1  2  13  14  15  16  17  18  19  20  21  23  24  26 0
 3-21G
 ****
 27  28  34  35  38  39  40  41  42  43  44  45  46  47  48 0
 3-21G
 ****


