%nproc=1
%NoSave
%Mem=1900MB
#P OB98/GEN NMR

erre ene a

0 1
  C     -374.920     387.048     520.437
  O     -374.512     385.695     520.489
  H     -375.442     387.289     521.366
  H     -375.605     387.197     519.597
  H     -374.052     387.703     520.331
  P     -373.574     385.172     519.298
  C     -371.373     383.748     519.146
  O     -372.353     384.369     519.969
  C     -370.202     383.275     520.007
  O     -369.651     384.356     520.784
  C     -370.579     382.236     521.045
  O     -370.875     380.978     520.486
  C     -369.328     382.248     521.917
  O     -368.275     381.483     521.313
  C     -368.977     383.760     521.928
  N     -369.349     384.409     523.174
  C     -368.333     384.506     524.137
  O     -367.208     384.066     523.899
  N     -368.628     385.072     525.350
  C     -369.820     385.526     525.580
  N     -370.058     386.067     526.806
  C     -370.917     385.467     524.587
  C     -370.613     384.902     523.420
  O     -372.873     386.516     518.788
  O     -374.277     384.393     518.234
  H     -368.619     380.572     521.218
  H     -372.435     387.020     519.494
  H     -371.897     385.869     524.814
  H     -371.354     384.814     522.634
  H     -367.900     383.902     521.770
  H     -369.515     381.817     522.902
  H     -371.418     382.601     521.658
  H     -369.411     382.903     519.334
  H     -369.290     386.070     527.469
  H     -371.026     384.435     518.367
  H     -370.953     386.424     527.109
  H     -371.844     382.898     518.648
  P     -371.222     379.724     521.423
  C     -372.771     377.672     521.277
  O     -372.246     378.810     520.596
  O     -371.670     380.073     522.803
  O     -369.879     378.852     521.382
  H     -369.626     378.546     520.490
  H     -373.438     377.144     520.628
  H     -373.301     377.992     522.149
  H     -371.968     377.026     521.565

 6  7  8  9  10  11  12  13  14  15  16  26  30  31  32  33  35 0
 6-311+G(2d,p)
 ****
 37  38 0
 6-311+G(2d,p)
 ****
 1  2  3  4  5  17  18  19  20  21  22  23  24  25 0
 3-21G
 ****
 27  28  29  34  36  39  40  41  42  43  44  45  46 0
 3-21G
 ****


