%nproc=1
%NoSave
%Mem=1900MB
#P OB98/GEN NMR

erre ene a

0 1
  C      -69.362    -751.603    -391.796
  O      -70.137    -751.336    -392.944
  P      -69.769    -750.106    -393.909
  C      -71.508    -750.989    -395.592
  O      -71.056    -749.870    -394.845
  C      -72.804    -750.650    -396.322
  O      -73.880    -750.377    -395.381
  C      -72.725    -749.395    -397.174
  O      -71.874    -749.425    -398.302
  C      -74.203    -749.109    -397.428
  O      -74.714    -749.922    -398.484
  C      -74.831    -749.534    -396.071
  N      -75.207    -748.371    -395.262
  C      -76.578    -748.109    -395.189
  O      -77.437    -748.784    -395.762
  N      -76.936    -747.002    -394.459
  C      -76.072    -746.140    -393.850
  O      -76.456    -745.144    -393.240
  C      -74.640    -746.461    -393.973
  C      -74.283    -747.551    -394.663
  O      -68.485    -750.248    -394.651
  O      -69.822    -748.842    -392.924
  H      -74.562    -750.853    -398.241
  H      -70.686    -748.693    -392.503
  H      -77.915    -746.785    -394.410
  H      -73.935    -745.803    -393.486
  H      -73.234    -747.807    -394.770
  H      -75.730    -750.144    -396.240
  H      -74.375    -748.066    -397.703
  H      -72.352    -748.575    -396.539
  H      -73.111    -751.521    -396.909
  H      -71.690    -751.826    -394.906
  H      -70.721    -751.299    -396.298
  P      -70.760    -748.311    -398.589
  C      -69.022    -749.893    -399.677
  O      -69.882    -748.791    -399.847
  O      -70.028    -747.765    -397.406
  O      -71.643    -747.132    -399.239
  H      -71.243    -746.269    -399.023
  H      -68.470    -750.057    -400.612
  H      -69.591    -750.800    -399.456
  H      -68.297    -749.698    -398.881
  H      -69.761    -752.455    -391.286
  H      -69.385    -750.754    -391.145
  H      -68.352    -751.802    -392.086

 3  4  5  6  7  8  9  10  11  12  13  23  28  29  30  31  32 0
 6-311+G(2d,p)
 ****
 33  34 0
 6-311+G(2d,p)
 ****
 1  2  14  15  16  17  18  19  20  21  22  24  25  26  27 0
 3-21G
 ****
 35  36  37  38  39  40  41  42  43  44  45 0
 3-21G
 ****


