%nproc=1
%NoSave
%Mem=1900MB
#P OB98/GEN NMR

erre ene a

0 1
  C     -835.079     800.290    1956.701
  O     -835.831     800.474    1957.896
  P     -837.341     799.914    1957.903
  C     -838.612     802.166    1957.623
  O     -838.249     800.925    1957.037
  C     -839.691     802.852    1956.767
  O     -840.852     801.991    1956.631
  C     -840.213     804.139    1957.376
  O     -839.276     805.193    1957.201
  C     -841.505     804.328    1956.583
  O     -841.237     804.862    1955.299
  C     -842.013     802.873    1956.461
  N     -846.720     803.920    1958.170
  C     -845.987     804.442    1957.187
  N     -844.738     804.113    1956.779
  C     -844.250     803.121    1957.544
  C     -844.866     802.470    1958.610
  C     -846.179     802.926    1958.918
  N     -846.909     802.396    1959.973
  N     -844.058     801.507    1959.130
  C     -842.935     801.566    1958.433
  N     -843.022     802.516    1957.465
  O     -837.835     800.158    1959.422
  O     -837.441     798.447    1957.542
  H     -840.928     805.788    1955.411
  H     -837.902     799.310    1959.897
  H     -846.470     805.240    1956.609
  H     -842.067     800.960    1958.624
  H     -842.434     802.668    1955.475
  H     -842.221     805.016    1957.098
  H     -840.438     804.004    1958.444
  H     -839.271     803.035    1955.769
  H     -837.736     802.817    1957.696
  H     -847.803     802.815    1960.175
  H     -846.499     801.708    1960.568
  H     -838.974     801.978    1958.645
  P     -838.345     805.569    1958.471
  C     -840.257     807.202    1959.035
  O     -839.372     806.199    1959.526
  O     -837.568     806.876    1957.924
  O     -837.483     804.461    1958.976
  H     -838.185     807.481    1957.482
  H     -840.947     807.505    1959.851
  H     -840.863     806.787    1958.198
  H     -839.683     808.068    1958.696
  H     -834.101     800.704    1956.828
  H     -835.572     800.783    1955.890
  H     -834.999     799.245    1956.487

 3  4  5  6  7  8  9  10  11  12  22  25  29  30  31  32 0
 6-311+G(2d,p)
 ****
 33  36  37 0
 6-311+G(2d,p)
 ****
 1  2  13  14  15  16  17  18  19  20  21  23  24  26 0
 3-21G
 ****
 27  28  34  35  38  39  40  41  42  43  44  45  46  47  48 0
 3-21G
 ****


