%nproc=1
%NoSave
%Mem=1900MB
#P OB98/GEN NMR

erre ene a

0 1
  C      -37.473     191.850    -844.716
  O      -37.487     193.250    -844.922
  H      -36.663     191.609    -844.016
  H      -37.283     191.341    -845.663
  H      -38.420     191.516    -844.292
  P      -38.662     193.830    -845.850
  C      -39.741     195.507    -844.180
  O      -38.937     195.338    -845.347
  C      -39.272     196.728    -843.388
  O      -38.183     196.331    -842.499
  C      -38.759     197.891    -844.253
  O      -39.128     199.117    -843.604
  C      -37.251     197.740    -844.160
  O      -36.557     198.953    -844.459
  C      -37.115     197.269    -842.712
  N      -32.224     198.301    -842.101
  C      -33.301     199.153    -842.290
  N      -33.042     200.472    -842.330
  N      -34.530     198.729    -842.440
  C      -34.656     197.382    -842.342
  C      -33.664     196.438    -842.152
  C      -32.306     196.914    -842.019
  O      -31.303     196.219    -841.859
  N      -34.192     195.173    -842.140
  C      -35.492     195.346    -842.321
  N      -35.816     196.673    -842.446
  O      -39.944     193.021    -845.337
  O      -38.454     193.678    -847.322
  H      -35.600     198.791    -844.319
  H      -40.086     192.225    -845.891
  H      -31.296     198.681    -842.001
  H      -36.227     194.551    -842.371
  H      -37.233     198.091    -841.997
  H      -36.898     196.966    -844.855
  H      -32.124     200.872    -842.184
  H      -39.133     197.892    -845.280
  H      -33.818     201.110    -842.439
  H      -40.100     197.059    -842.740
  H      -39.646     194.611    -843.557
  H      -40.787     195.627    -844.480
  P      -38.744     200.495    -844.331
  C      -41.126     201.540    -844.193
  O      -39.759     201.629    -843.816
  O      -39.237     200.242    -845.836
  O      -37.295     200.848    -844.274
  H      -38.698     200.780    -846.454
  H      -41.666     202.363    -843.773
  H      -41.537     200.621    -843.830
  H      -41.204     201.569    -845.260

 6  7  8  9  10  11  12  13  14  15  26  29  33  34 0
 6-311+G(2d,p)
 ****
 36  38  39  40  41 0
 6-311+G(2d,p)
 ****
 1  2  3  4  5  16  17  18  19  20  21  22  23  24  25 0
 3-21G
 ****
 27  28  30  31  32  35  37  42  43  44  45  46  47 0
 3-21G
 ****
 48  49 0
 3-21G
 ****


