%nproc=1
%NoSave
%Mem=1900MB
#P OB98/GEN NMR

erre ene a

0 1
  C     -275.404      85.808    -335.232
  O     -274.526      84.725    -334.915
  P     -273.404      84.817    -333.769
  C     -271.906      86.152    -335.390
  O     -272.438      86.058    -334.068
  C     -270.922      87.314    -335.519
  O     -271.583      88.572    -335.274
  C     -269.754      87.279    -334.538
  O     -268.786      86.319    -334.932
  C     -269.275      88.724    -334.597
  O     -268.421      88.945    -335.730
  C     -270.602      89.495    -334.750
  N     -271.051      90.096    -333.503
  C     -271.063      91.493    -333.451
  O     -270.662      92.155    -334.409
  N     -271.519      92.106    -332.305
  C     -271.850      91.388    -331.281
  N     -272.298      92.049    -330.178
  C     -271.762      89.913    -331.257
  C     -271.364      89.343    -332.396
  O     -272.685      83.534    -333.514
  O     -274.200      85.277    -332.456
  H     -267.659      88.343    -335.619
  H     -273.760      84.904    -331.666
  H     -272.021      89.354    -330.374
  H     -271.276      88.262    -332.468
  H     -270.501      90.282    -335.506
  H     -268.706      89.015    -333.704
  H     -270.125      87.053    -333.532
  H     -270.552      87.326    -336.551
  H     -272.353      93.055    -330.228
  H     -272.740      86.309    -336.081
  H     -272.582      91.586    -329.329
  H     -271.413      85.206    -335.638
  P     -268.795      84.860    -334.263
  C     -266.813      85.209    -332.669
  O     -268.210      85.005    -332.779
  O     -268.188      83.773    -335.086
  O     -270.351      84.576    -333.997
  H     -270.517      83.619    -334.072
  H     -266.603      85.681    -331.704
  H     -266.445      85.859    -333.472
  H     -266.301      84.245    -332.720
  H     -276.061      85.514    -336.024
  H     -274.828      86.655    -335.542
  H     -275.980      86.065    -334.367

 3  4  5  6  7  8  9  10  11  12  13  23  27  28  29  30  32 0
 6-311+G(2d,p)
 ****
 34  35 0
 6-311+G(2d,p)
 ****
 1  2  14  15  16  17  18  19  20  21  22  24  25  26 0
 3-21G
 ****
 31  33  36  37  38  39  40  41  42  43  44  45  46 0
 3-21G
 ****


