%nproc=1
%NoSave
%Mem=1900MB
#P OB98/GEN NMR

erre ene a

0 1
  C       44.221      50.201     -61.142
  O       44.611      49.509     -62.308
  H       43.183      49.945     -60.913
  H       44.289      51.279     -61.305
  H       44.850      49.911     -60.298
  P       46.121      49.721     -62.815
  C       45.452      52.078     -63.691
  O       46.321      51.316     -62.864
  C       46.184      53.301     -64.250
  O       46.553      54.175     -63.157
  C       47.460      52.946     -65.015
  O       47.533      53.735     -66.204
  C       48.580      53.310     -64.058
  O       49.795      53.620     -64.739
  C       47.959      54.464     -63.263
  N       48.573      54.608     -61.945
  C       49.420      55.705     -61.760
  O       49.629      56.488     -62.688
  N       50.050      55.860     -60.553
  C       49.898      54.965     -59.628
  N       50.567      55.164     -58.461
  C       49.053      53.767     -59.795
  C       48.423      53.656     -60.963
  O       46.043      49.303     -64.356
  O       47.162      48.986     -62.039
  H       50.395      54.064     -64.101
  H       46.943      49.181     -64.743
  H       48.970      53.040     -59.001
  H       47.782      52.807     -61.175
  H       48.069      55.412     -63.807
  H       48.778      52.462     -63.392
  H       47.512      51.893     -65.289
  H       45.487      53.865     -64.880
  H       51.145      55.991     -58.386
  H       44.593      52.404     -63.098
  H       50.545      54.518     -57.685
  H       45.102      51.452     -64.518
  P       47.733      52.922     -67.575
  C       50.316      52.841     -67.379
  O       49.108      52.101     -67.453
  O       48.061      54.066     -68.643
  O       46.546      52.104     -67.962
  H       47.265      54.290     -69.158
  H       51.143      52.167     -67.302
  H       50.293      53.477     -66.519
  H       50.423      53.437     -68.261

 6  7  8  9  10  11  12  13  14  15  16  26  30  31  32  33  35 0
 6-311+G(2d,p)
 ****
 37  38 0
 6-311+G(2d,p)
 ****
 1  2  3  4  5  17  18  19  20  21  22  23  24  25 0
 3-21G
 ****
 27  28  29  34  36  39  40  41  42  43  44  45  46 0
 3-21G
 ****


