%nproc=1
%NoSave
%Mem=1900MB
#P OB98/GEN NMR

erre ene a

0 1
  C     -408.203     117.776    -973.855
  O     -408.742     119.001    -974.306
  H     -407.626     117.952    -972.946
  H     -407.530     117.374    -974.621
  H     -408.994     117.056    -973.640
  P     -409.927     118.935    -975.377
  C     -409.226     121.299    -976.201
  O     -410.291     120.455    -975.757
  C     -409.274     122.626    -975.453
  O     -410.474     123.350    -975.840
  C     -409.280     122.500    -973.922
  O     -408.512     123.569    -973.362
  C     -410.737     122.729    -973.574
  O     -410.911     123.173    -972.227
  C     -411.116     123.774    -974.627
  N     -415.297     124.940    -972.107
  C     -413.972     125.105    -971.773
  N     -413.710     125.604    -970.544
  N     -412.982     124.798    -972.566
  C     -413.387     124.328    -973.770
  C     -414.666     124.108    -974.228
  C     -415.749     124.427    -973.330
  O     -416.946     124.291    -973.570
  N     -414.644     123.559    -975.483
  C     -413.360     123.420    -975.778
  N     -412.555     123.873    -974.773
  O     -411.178     118.470    -974.486
  O     -409.698     118.020    -976.534
  H     -411.830     123.494    -972.130
  H     -411.278     117.500    -974.539
  H     -416.033     125.163    -971.449
  H     -412.975     122.992    -976.689
  H     -410.746     124.778    -974.371
  H     -411.307     121.809    -973.717
  H     -414.423     125.881    -969.885
  H     -408.908     121.528    -973.557
  H     -412.739     125.769    -970.293
  H     -408.409     123.239    -975.774
  H     -409.335     121.481    -977.272
  H     -408.270     120.788    -976.028
  P     -407.034     123.228    -972.822
  C     -407.105     124.978    -970.885
  O     -406.455     124.522    -972.062
  O     -406.163     123.164    -974.172
  O     -406.940     121.951    -972.055
  H     -405.468     122.492    -974.075
  H     -406.597     125.841    -970.508
  H     -407.089     124.204    -970.146
  H     -408.119     125.233    -971.113

 6  7  8  9  10  11  12  13  14  15  26  29  33  34 0
 6-311+G(2d,p)
 ****
 36  38  39  40  41 0
 6-311+G(2d,p)
 ****
 1  2  3  4  5  16  17  18  19  20  21  22  23  24  25 0
 3-21G
 ****
 27  28  30  31  32  35  37  42  43  44  45  46  47 0
 3-21G
 ****
 48  49 0
 3-21G
 ****


