%nproc=1
%NoSave
%Mem=1900MB
#P OB98/GEN NMR

erre ene a

0 1
  C      147.843    -165.138     -10.869
  O      149.103    -165.084     -10.238
  H      147.317    -164.199     -10.670
  H      147.245    -165.959     -10.472
  H      147.962    -165.248     -11.950
  P      150.014    -166.409     -10.206
  C      150.588    -167.241     -12.566
  O      150.923    -166.315     -11.536
  C      151.157    -166.805     -13.917
  O      150.486    -165.595     -14.360
  C      152.663    -166.514     -13.892
  O      153.285    -167.145     -15.016
  C      152.740    -165.000     -14.024
  O      153.988    -164.570     -14.562
  C      151.501    -164.714     -14.880
  N      151.083    -163.318     -14.831
  C      151.787    -162.426     -15.647
  O      152.730    -162.827     -16.331
  N      151.433    -161.102     -15.642
  C      150.495    -160.691     -14.848
  N      150.197    -159.362     -14.884
  C      149.754    -161.586     -13.935
  C      150.094    -162.875     -13.984
  O      149.256    -167.683     -10.053
  O      151.068    -166.143      -9.032
  H      153.964    -163.591     -14.656
  H      151.450    -167.005      -8.734
  H      148.989    -161.194     -13.285
  H      149.598    -163.610     -13.354
  H      151.681    -164.986     -15.929
  H      152.621    -164.540     -13.035
  H      153.155    -166.860     -12.985
  H      150.912    -167.575     -14.657
  H      150.727    -158.782     -15.523
  H      149.498    -167.325     -12.619
  H      149.492    -158.929     -14.306
  H      151.012    -168.216     -12.299
  P      154.763    -167.726     -14.769
  C      154.908    -170.281     -14.369
  O      154.796    -169.234     -15.320
  O      154.827    -167.895     -13.181
  O      155.848    -166.837     -15.278
  H      155.316    -167.154     -12.782
  H      154.918    -171.223     -14.876
  H      154.075    -170.245     -13.699
  H      155.816    -170.164     -13.815

 6  7  8  9  10  11  12  13  14  15  16  26  30  31  32  33  35 0
 6-311+G(2d,p)
 ****
 37  38 0
 6-311+G(2d,p)
 ****
 1  2  3  4  5  17  18  19  20  21  22  23  24  25 0
 3-21G
 ****
 27  28  29  34  36  39  40  41  42  43  44  45  46 0
 3-21G
 ****


