%nproc=1
%NoSave
%Mem=1900MB
#P OB98/GEN NMR

erre ene a

0 1
  C      169.853    -199.193     -16.063
  O      169.329    -200.033     -15.030
  P      168.919    -199.296     -13.663
  C      166.618    -198.329     -14.357
  O      167.315    -199.285     -13.573
  C      165.334    -198.919     -14.951
  O      165.639    -199.959     -15.929
  C      164.400    -199.547     -13.907
  O      163.058    -199.313     -14.351
  C      164.713    -201.027     -14.027
  O      163.674    -201.828     -13.467
  C      164.889    -201.133     -15.542
  N      164.817    -204.932     -18.865
  C      163.906    -203.918     -18.655
  N      162.841    -203.880     -19.486
  N      164.026    -203.019     -17.714
  C      165.160    -203.155     -16.985
  C      166.147    -204.109     -17.106
  C      165.984    -205.119     -18.130
  O      166.764    -206.035     -18.362
  N      167.162    -203.900     -16.199
  C      166.745    -202.862     -15.494
  N      165.569    -202.342     -15.965
  O      169.298    -197.769     -13.945
  O      169.622    -199.832     -12.460
  H      162.895    -201.758     -14.062
  H      170.149    -197.549     -13.523
  H      164.666    -205.612     -19.594
  H      167.266    -202.434     -14.652
  H      163.927    -201.120     -16.075
  H      165.649    -201.261     -13.507
  H      162.712    -204.513     -20.264
  H      164.538    -199.166     -12.892
  H      162.178    -203.123     -19.381
  H      164.803    -198.118     -15.483
  H      167.257    -197.976     -15.171
  H      166.400    -197.451     -13.739
  P      162.152    -198.303     -13.497
  C      162.664    -196.087     -14.731
  O      161.722    -197.108     -14.471
  O      163.212    -197.617     -12.507
  O      161.046    -198.955     -12.731
  H      162.802    -197.495     -11.629
  H      162.442    -195.641     -15.705
  H      163.687    -196.473     -14.748
  H      162.585    -195.313     -13.964
  H      170.090    -199.788     -16.920
  H      170.738    -198.705     -15.712
  H      169.123    -198.458     -16.330

 3  4  5  6  7  8  9  10  11  12  23  26  30  31 0
 6-311+G(2d,p)
 ****
 33  35  36  37  38 0
 6-311+G(2d,p)
 ****
 1  2  13  14  15  16  17  18  19  20  21  22  24  25 0
 3-21G
 ****
 27  28  29  32  34  39  40  41  42  43  44  45  46  47  48  49 0
 3-21G
 ****


