%nproc=1
%NoSave
%Mem=1900MB
#P OB98/GEN NMR

erre ene a

0 1
  C     -343.599    -813.747     537.815
  O     -344.401    -812.758     537.159
  P     -343.644    -811.494     536.531
  C     -343.236    -809.822     538.475
  O     -342.699    -810.847     537.655
  C     -342.179    -809.246     539.427
  O     -341.099    -808.618     538.683
  C     -342.729    -808.193     540.390
  O     -341.967    -808.243     541.598
  C     -342.408    -806.892     539.675
  O     -342.440    -805.779     540.563
  C     -341.037    -807.233     539.086
  N     -339.802    -802.531     537.740
  C     -340.133    -803.048     538.980
  N     -340.100    -802.184     540.019
  N     -340.473    -804.291     539.180
  C     -340.433    -805.044     538.054
  C     -340.122    -804.655     536.774
  C     -339.778    -803.264     536.560
  O     -339.487    -802.751     535.480
  N     -340.216    -805.702     535.890
  C     -340.579    -806.721     536.643
  N     -340.691    -806.383     537.964
  O     -344.821    -810.414     536.371
  O     -342.986    -811.769     535.221
  H     -342.323    -804.967     540.022
  H     -345.044    -810.305     535.434
  H     -339.560    -801.562     537.638
  H     -340.784    -807.727     536.283
  H     -340.237    -807.127     539.827
  H     -343.145    -806.716     538.875
  H     -339.801    -801.224     539.939
  H     -343.792    -808.290     540.624
  H     -340.296    -802.541     540.944
  H     -341.738    -810.074     539.997
  H     -344.078    -810.208     539.054
  H     -343.659    -809.042     537.833
  P     -342.341    -809.404     542.643
  C     -344.286    -808.414     544.045
  O     -343.898    -809.237     542.960
  O     -341.626    -808.938     543.999
  O     -341.909    -810.773     542.231
  H     -341.444    -809.705     544.567
  H     -344.652    -807.459     543.662
  H     -343.455    -808.227     544.738
  H     -345.088    -808.913     544.597
  H     -344.229    -814.529     538.185
  H     -343.074    -813.296     538.631
  H     -342.895    -814.154     537.119

 3  4  5  6  7  8  9  10  11  12  23  26  30  31 0
 6-311+G(2d,p)
 ****
 33  35  36  37  38 0
 6-311+G(2d,p)
 ****
 1  2  13  14  15  16  17  18  19  20  21  22  24  25 0
 3-21G
 ****
 27  28  29  32  34  39  40  41  42  43  44  45  46  47  48  49 0
 3-21G
 ****


