%nproc=1
%NoSave
%Mem=1900MB
#P OB98/GEN NMR

erre ene a

0 1
  C        2.337    -335.526    -163.898
  O        2.025    -336.849    -164.291
  H        3.406    -335.467    -163.684
  H        1.783    -335.274    -162.991
  H        2.096    -334.815    -164.695
  P        0.583    -337.095    -164.947
  C       -1.878    -336.944    -164.145
  O       -0.507    -336.887    -163.780
  C       -2.723    -336.137    -163.157
  O       -2.716    -336.820    -161.873
  C       -2.214    -334.706    -162.925
  O       -3.339    -333.831    -162.801
  C       -1.485    -334.799    -161.597
  O       -1.425    -333.547    -160.916
  C       -2.309    -335.860    -160.875
  N       -1.897    -336.423    -155.884
  C       -2.856    -335.770    -156.633
  N       -3.852    -335.168    -155.950
  N       -2.838    -335.711    -157.936
  C       -1.802    -336.388    -158.491
  C       -0.787    -337.067    -157.857
  C       -0.803    -337.104    -156.412
  O        0.031    -337.645    -155.693
  N        0.098    -337.595    -158.770
  C       -0.382    -337.233    -159.943
  N       -1.536    -336.506    -159.827
  O        0.563    -338.676    -165.201
  O        0.312    -336.336    -166.204
  H       -2.284    -333.418    -160.462
  H        0.517    -338.854    -166.159
  H       -1.950    -336.430    -154.877
  H        0.067    -337.463    -160.901
  H       -3.208    -335.445    -160.408
  H       -0.458    -335.144    -161.763
  H       -3.954    -335.214    -154.946
  H       -1.566    -334.353    -163.731
  H       -4.589    -334.711    -156.475
  H       -3.761    -336.134    -163.507
  H       -2.205    -337.989    -164.136
  H       -2.003    -336.540    -165.155
  P       -3.570    -332.768    -163.982
  C       -2.608    -330.462    -164.671
  O       -2.464    -331.607    -163.841
  O       -4.934    -332.039    -163.561
  O       -3.678    -333.387    -165.339
  H       -5.657    -332.326    -164.149
  H       -1.810    -329.776    -164.474
  H       -3.545    -329.988    -164.465
  H       -2.577    -330.760    -165.698

 6  7  8  9  10  11  12  13  14  15  26  29  33  34 0
 6-311+G(2d,p)
 ****
 36  38  39  40  41 0
 6-311+G(2d,p)
 ****
 1  2  3  4  5  16  17  18  19  20  21  22  23  24  25 0
 3-21G
 ****
 27  28  30  31  32  35  37  42  43  44  45  46  47 0
 3-21G
 ****
 48  49 0
 3-21G
 ****


