%nproc=1
%NoSave
%Mem=1900MB
#P OB98/GEN NMR

erre ene a

0 1
  C      -64.989      41.099     178.200
  O      -64.429      40.233     179.183
  P      -65.266      39.212     180.078
  C      -63.529      38.924     182.022
  O      -64.804      39.386     181.600
  C      -63.130      39.440     183.415
  O      -63.025      40.888     183.384
  C      -64.215      39.108     184.441
  O      -64.248      37.832     185.053
  C      -64.180      40.267     185.427
  O      -63.355      39.996     186.563
  C      -63.592      41.413     184.601
  N      -65.563      45.973     185.823
  C      -64.592      45.241     186.475
  N      -64.113      45.760     187.625
  N      -64.141      44.093     186.044
  C      -64.765      43.647     184.931
  C      -65.756      44.272     184.208
  C      -66.207      45.571     184.661
  O      -67.058      46.267     184.116
  N      -66.163      43.505     183.147
  C      -65.440      42.407     183.240
  N      -64.568      42.449     184.306
  O      -65.355      37.818     179.554
  O      -66.754      39.836     180.058
  H      -62.485      39.706     186.239
  H      -67.374      39.079     180.104
  H      -65.857      46.864     186.187
  H      -65.500      41.564     182.564
  H      -62.772      41.907     185.138
  H      -65.185      40.471     185.817
  H      -64.502      46.576     188.071
  H      -65.180      39.194     183.925
  H      -63.565      45.129     188.215
  H      -62.140      39.075     183.698
  H      -62.808      39.256     181.270
  H      -63.507      37.833     182.014
  P      -65.516      37.151     185.756
  C      -65.321      34.871     184.607
  O      -65.251      35.575     185.833
  O      -66.672      37.258     184.655
  O      -65.942      37.785     187.040
  H      -67.546      37.112     185.063
  H      -65.435      33.802     184.815
  H      -64.398      35.026     184.041
  H      -66.176      35.207     184.009
  H      -64.210      41.676     177.748
  H      -65.696      41.755     178.664
  H      -65.482      40.516     177.450

 3  4  5  6  7  8  9  10  11  12  23  26  30  31 0
 6-311+G(2d,p)
 ****
 33  35  36  37  38 0
 6-311+G(2d,p)
 ****
 1  2  13  14  15  16  17  18  19  20  21  22  24  25 0
 3-21G
 ****
 27  28  29  32  34  39  40  41  42  43  44  45  46  47  48  49 0
 3-21G
 ****


