%nproc=1
%NoSave
%Mem=1900MB
#P OB98/GEN NMR

erre ene a

0 1
  C      381.065     220.858     -15.229
  O      381.724     219.956     -14.357
  P      383.332     219.934     -14.407
  C      383.380     219.869     -11.796
  O      383.815     219.295     -13.021
  C      383.743     218.934     -10.639
  O      385.157     218.650     -10.645
  C      383.430     219.499      -9.261
  O      382.059     219.319      -8.947
  C      384.375     218.696      -8.377
  O      383.825     217.399      -8.084
  C      385.621     218.579      -9.270
  N      389.306     220.097      -6.159
  C      388.372     219.089      -6.007
  N      388.468     218.352      -4.880
  N      387.434     218.825      -6.883
  C      387.457     219.651      -7.951
  C      388.315     220.697      -8.209
  C      389.378     220.943      -7.262
  O      390.286     221.756      -7.397
  N      388.006     221.323      -9.388
  C      386.984     220.639      -9.856
  N      386.622     219.605      -9.030
  O      383.717     221.481     -14.281
  O      383.920     219.290     -15.621
  H      383.803     216.863      -8.898
  H      383.913     221.859     -15.162
  H      390.014     220.242      -5.464
  H      386.485     220.839     -10.789
  H      386.122     217.610      -9.150
  H      384.557     219.181      -7.416
  H      389.149     218.507      -4.154
  H      383.698     220.565      -9.211
  H      387.792     217.609      -4.747
  H      383.211     217.985     -10.791
  H      382.298     219.997     -11.827
  H      383.854     220.843     -11.669
  P      381.434     220.239      -7.794
  C      379.049     219.654      -8.640
  O      379.937     219.732      -7.538
  O      381.242     221.657      -8.517
  O      382.285     220.366      -6.573
  H      381.419     222.375      -7.883
  H      378.330     218.856      -8.453
  H      379.578     219.451      -9.575
  H      378.513     220.603      -8.732
  H      380.007     220.773     -15.097
  H      381.318     220.624     -16.242
  H      381.373     221.858     -15.007

 3  4  5  6  7  8  9  10  11  12  23  26  30  31 0
 6-311+G(2d,p)
 ****
 33  35  36  37  38 0
 6-311+G(2d,p)
 ****
 1  2  13  14  15  16  17  18  19  20  21  22  24  25 0
 3-21G
 ****
 27  28  29  32  34  39  40  41  42  43  44  45  46  47  48  49 0
 3-21G
 ****


