%nproc=1
%NoSave
%Mem=1900MB
#P OB98/GEN NMR

erre ene a

0 1
  C       60.333     736.303    -159.594
  O       59.086     736.549    -160.212
  H       61.139     736.792    -160.160
  H       60.316     736.724    -158.584
  H       60.526     735.226    -159.526
  P       58.898     735.977    -161.703
  C       58.335     733.622    -160.778
  O       59.177     734.401    -161.621
  C       57.406     732.748    -161.615
  O       58.176     731.981    -162.568
  C       56.607     731.716    -160.814
  O       55.470     732.310    -160.203
  C       56.210     730.753    -161.926
  O       55.097     731.296    -162.663
  C       57.461     730.738    -162.808
  N       59.945     726.732    -164.816
  C       59.204     727.716    -165.382
  N       58.589     728.759    -164.784
  C       58.822     728.746    -163.463
  C       59.584     727.831    -162.747
  C       60.161     726.776    -163.485
  N       60.864     725.753    -162.881
  N       59.584     728.143    -161.397
  C       58.827     729.218    -161.303
  N       58.345     729.620    -162.526
  O       60.202     736.552    -162.467
  O       57.639     736.391    -162.392
  H       54.832     730.623    -163.322
  H       59.955     737.364    -162.943
  H       59.073     727.636    -166.470
  H       58.578     729.724    -160.376
  H       57.217     730.705    -163.886
  H       55.893     729.767    -161.547
  H       57.233     731.192    -160.095
  H       56.746     733.410    -162.178
  H       57.731     734.287    -160.144
  H       60.814     724.865    -163.389
  H       60.762     725.689    -161.868
  H       58.968     733.001    -160.128
  P       54.733     731.477    -159.049
  C       55.828     732.698    -157.050
  O       55.715     731.484    -157.773
  O       54.812     729.961    -159.590
  O       53.310     731.879    -158.781
  H       53.921     729.583    -159.645
  H       56.507     732.565    -156.234
  H       54.867     732.979    -156.673
  H       56.196     733.466    -157.698

 6  7  8  9  10  11  12  13  14  15  25  28  32  33  34  35 0
 6-311+G(2d,p)
 ****
 36  39  40 0
 6-311+G(2d,p)
 ****
 1  2  3  4  5  16  17  18  19  20  21  22  23  24 0
 3-21G
 ****
 26  27  29  30  31  37  38  41  42  43  44  45  46  47  48 0
 3-21G
 ****


