%nproc=1
%NoSave
%Mem=1900MB
#P OB98/GEN NMR

erre ene a

0 1
  C      185.763     125.376    -282.667
  O      186.409     125.538    -281.416
  P      185.520     126.074    -280.192
  C      185.498     123.681    -279.165
  O      184.743     124.807    -279.591
  C      185.230     123.396    -277.688
  O      185.719     124.482    -276.876
  C      183.758     123.251    -277.328
  O      183.250     121.993    -277.742
  C      183.818     123.448    -275.819
  O      184.263     122.241    -275.180
  C      184.893     124.542    -275.684
  N      182.840     127.950    -272.460
  C      183.273     126.684    -272.275
  N      183.789     125.832    -273.188
  C      183.840     126.409    -274.399
  C      183.414     127.682    -274.742
  C      182.897     128.473    -273.706
  N      182.450     129.764    -273.899
  N      183.605     127.915    -276.089
  C      184.147     126.807    -276.548
  N      184.323     125.873    -275.564
  O      184.364     126.907    -280.918
  O      186.262     126.900    -279.188
  H      184.049     122.321    -274.229
  H      184.096     127.676    -280.377
  H      183.201     126.303    -271.262
  H      184.432     126.638    -277.577
  H      185.549     124.386    -274.819
  H      182.852     123.717    -275.381
  H      183.171     124.054    -277.789
  H      185.781     122.487    -277.415
  H      186.566     123.885    -279.297
  H      181.958     130.206    -273.136
  H      182.361     130.098    -274.850
  H      185.233     122.820    -279.785
  P      181.657     121.839    -277.842
  C      181.256     122.725    -280.219
  O      181.219     123.024    -278.834
  O      181.188     122.386    -276.417
  O      181.180     120.474    -278.207
  H      181.608     123.234    -276.195
  H      180.887     123.593    -280.773
  H      180.618     121.866    -280.441
  H      182.284     122.519    -280.530
  H      186.467     125.016    -283.388
  H      185.371     126.318    -282.991
  H      184.963     124.672    -282.567

 3  4  5  6  7  8  9  10  11  12  22  25  29  30  31  32 0
 6-311+G(2d,p)
 ****
 33  36  37 0
 6-311+G(2d,p)
 ****
 1  2  13  14  15  16  17  18  19  20  21  23  24  26 0
 3-21G
 ****
 27  28  34  35  38  39  40  41  42  43  44  45  46  47  48 0
 3-21G
 ****


