%nproc=1
%NoSave
%Mem=1900MB
#P OB98/GEN NMR

erre ene a

0 1
  C       -8.028     436.890     401.132
  O       -8.253     435.853     402.066
  H       -8.722     437.709     401.341
  H       -8.203     436.532     400.114
  H       -7.004     437.262     401.226
  P       -7.404     434.507     401.872
  C       -5.257     435.905     402.306
  O       -5.913     434.948     401.483
  C       -3.756     435.619     402.323
  O       -3.523     434.251     402.740
  C       -3.083     435.743     400.963
  O       -2.821     437.093     400.605
  C       -1.809     434.949     401.195
  O       -0.789     435.751     401.808
  C       -2.283     433.830     402.139
  N       -2.417     432.553     401.440
  C       -1.321     431.697     401.525
  O       -0.294     431.978     402.145
  N       -1.424     430.522     400.836
  C       -2.474     430.147     400.049
  O       -2.479     429.101     399.415
  C       -3.597     431.096     399.980
  C       -3.516     432.240     400.666
  O       -7.989     433.898     400.514
  O       -7.496     433.538     403.005
  H       -8.551     433.127     400.713
  H       -0.614     436.483     401.187
  H       -0.641     429.889     400.889
  H       -4.444     430.830     399.362
  H       -4.326     432.961     400.623
  H       -1.567     433.691     402.960
  H       -1.406     434.578     400.257
  H       -3.682     435.241     400.195
  H       -3.283     436.285     403.053
  H       -5.639     435.838     403.328
  H       -5.460     436.907     401.917
  P       -2.565     437.415     399.053
  C       -4.852     438.588     398.476
  O       -4.015     437.447     398.368
  O       -1.914     436.037     398.568
  O       -1.719     438.626     398.838
  H       -2.210     435.286     399.115
  H       -5.768     438.409     397.954
  H       -4.357     439.435     398.048
  H       -5.061     438.781     399.508

 6  7  8  9  10  11  12  13  14  15  16  27  31  32  33  34  35 0
 6-311+G(2d,p)
 ****
 36  37 0
 6-311+G(2d,p)
 ****
 1  2  3  4  5  17  18  19  20  21  22  23  24  25 0
 3-21G
 ****
 26  28  29  30  38  39  40  41  42  43  44  45 0
 3-21G
 ****


