%nproc=1
%NoSave
%Mem=1900MB
#P OB98/GEN NMR

erre ene a

0 1
  C     -757.832     198.370    -773.983
  O     -757.668     199.666    -774.518
  H     -758.753     198.339    -773.399
  H     -756.993     198.138    -773.315
  H     -757.889     197.624    -774.783
  P     -756.614     199.843    -775.706
  C     -755.182     202.004    -775.971
  O     -756.491     201.429    -775.977
  C     -755.286     203.504    -775.698
  O     -755.871     204.156    -776.856
  C     -756.118     203.878    -774.470
  O     -755.522     205.004    -773.822
  C     -757.431     204.328    -775.091
  O     -758.171     205.197    -774.225
  C     -756.922     205.006    -776.363
  N     -759.843     208.487    -778.507
  C     -758.722     208.621    -777.708
  N     -758.357     209.884    -777.378
  N     -758.032     207.606    -777.266
  C     -758.500     206.409    -777.693
  C     -759.591     206.139    -778.485
  C     -760.366     207.266    -778.940
  O     -761.375     207.204    -779.651
  N     -759.763     204.778    -778.637
  C     -758.785     204.236    -777.913
  N     -757.992     205.171    -777.330
  O     -757.434     199.316    -776.977
  O     -755.322     199.121    -775.539
  H     -759.026     205.404    -774.659
  H     -757.226     198.374    -777.141
  H     -760.369     209.301    -778.804
  H     -758.632     203.166    -777.790
  H     -756.501     206.010    -776.164
  H     -758.052     203.467    -775.324
  H     -758.843     210.709    -777.694
  H     -756.255     203.053    -773.757
  H     -757.522     209.993    -776.811
  H     -754.258     203.907    -775.588
  H     -754.711     201.836    -776.944
  H     -754.578     201.505    -775.196
  P     -756.028     205.363    -772.327
  C     -754.663     207.564    -772.684
  O     -755.141     206.585    -771.772
  O     -755.507     204.097    -771.472
  O     -757.498     205.535    -772.204
  H     -756.145     203.910    -770.765
  H     -754.095     208.299    -772.153
  H     -755.492     208.035    -773.169
  H     -754.041     207.095    -773.417

 6  7  8  9  10  11  12  13  14  15  26  29  33  34 0
 6-311+G(2d,p)
 ****
 36  38  39  40  41 0
 6-311+G(2d,p)
 ****
 1  2  3  4  5  16  17  18  19  20  21  22  23  24  25 0
 3-21G
 ****
 27  28  30  31  32  35  37  42  43  44  45  46  47 0
 3-21G
 ****
 48  49 0
 3-21G
 ****


