%nproc=1
%NoSave
%Mem=1900MB
#P OB98/GEN NMR

erre ene a

0 1
  C     -161.311     982.273     225.109
  O     -159.900     982.246     225.229
  P     -159.209     983.367     226.157
  C     -157.816     984.285     224.158
  O     -157.808     983.726     225.458
  C     -156.392     984.442     223.627
  O     -155.621     985.299     224.488
  C     -155.603     983.141     223.558
  O     -155.908     982.385     222.391
  C     -154.179     983.663     223.490
  O     -153.877     984.069     222.141
  C     -154.240     984.883     224.434
  N     -150.496     985.582     227.759
  C     -150.724     986.210     226.558
  N     -149.800     987.112     226.158
  N     -151.776     985.976     225.809
  C     -152.616     985.050     226.336
  C     -152.493     984.363     227.527
  C     -151.323     984.624     228.337
  O     -151.025     984.067     229.395
  N     -153.553     983.506     227.724
  C     -154.302     983.682     226.658
  N     -153.763     984.567     225.772
  O     -158.770     982.554     227.466
  O     -160.087     984.537     226.492
  H     -152.977     984.462     222.165
  H     -158.593     983.174     228.202
  H     -149.663     985.800     228.307
  H     -155.240     983.159     226.496
  H     -153.654     985.715     224.042
  H     -153.437     982.899     223.769
  H     -148.936     987.285     226.656
  H     -155.732     982.545     224.462
  H     -149.919     987.537     225.238
  H     -156.450     984.925     222.642
  H     -158.319     985.268     224.180
  H     -158.403     983.629     223.489
  P     -156.884     981.122     222.587
  C     -155.250     979.697     221.156
  O     -156.572     980.146     221.346
  O     -158.326     981.718     222.245
  O     -156.836     980.507     223.948
  H     -159.027     981.206     222.689
  H     -155.267     978.857     220.430
  H     -154.802     979.351     222.094
  H     -154.624     980.499     220.734
  H     -161.630     981.478     224.468
  H     -161.616     983.211     224.693
  H     -161.754     982.151     226.076

 3  4  5  6  7  8  9  10  11  12  23  26  30  31 0
 6-311+G(2d,p)
 ****
 33  35  36  37  38 0
 6-311+G(2d,p)
 ****
 1  2  13  14  15  16  17  18  19  20  21  22  24  25 0
 3-21G
 ****
 27  28  29  32  34  39  40  41  42  43  44  45  46  47  48  49 0
 3-21G
 ****


