%nproc=1
%NoSave
%Mem=1900MB
#P OB98/GEN NMR

erre ene a

0 1
  C      -37.325     620.534     500.875
  O      -36.374     619.878     500.059
  H      -37.108     621.599     500.876
  H      -37.260     620.159     501.902
  H      -38.339     620.375     500.476
  P      -36.513     618.282     499.942
  C      -34.513     617.663     501.477
  O      -35.034     617.679     500.164
  C      -33.338     616.701     501.572
  O      -33.795     615.330     501.585
  C      -32.323     616.814     500.440
  O      -31.405     617.864     500.676
  C      -31.669     615.449     500.482
  O      -30.656     615.366     501.512
  C      -32.856     614.523     500.819
  N      -32.492     611.079     497.136
  C      -31.662     611.331     498.205
  N      -30.521     610.600     498.262
  N      -31.903     612.248     499.122
  C      -33.048     612.931     498.901
  C      -33.969     612.753     497.891
  C      -33.714     611.726     496.910
  O      -34.447     611.401     495.980
  N      -35.019     613.616     498.028
  C      -34.726     614.341     499.087
  N      -33.519     613.965     499.654
  O      -36.781     618.033     498.384
  O      -37.581     617.665     500.788
  H      -30.267     614.476     501.514
  H      -37.336     617.244     498.275
  H      -32.264     610.365     496.473
  H      -35.328     615.139     499.502
  H      -32.566     613.679     501.455
  H      -31.164     615.195     499.544
  H      -30.132     610.154     497.450
  H      -32.838     616.937     499.478
  H      -29.892     610.791     499.039
  H      -32.838     616.877     502.550
  H      -35.300     617.346     502.180
  H      -34.187     618.684     501.746
  P      -31.304     619.029     499.569
  C      -29.053     620.043     500.407
  O      -30.449     620.219     500.239
  O      -32.796     619.629     499.519
  O      -30.846     618.574     498.211
  H      -32.921     620.150     498.696
  H      -28.636     620.917     500.862
  H      -28.596     619.885     499.452
  H      -28.873     619.194     501.033

 6  7  8  9  10  11  12  13  14  15  26  29  33  34 0
 6-311+G(2d,p)
 ****
 36  38  39  40  41 0
 6-311+G(2d,p)
 ****
 1  2  3  4  5  16  17  18  19  20  21  22  23  24  25 0
 3-21G
 ****
 27  28  30  31  32  35  37  42  43  44  45  46  47 0
 3-21G
 ****
 48  49 0
 3-21G
 ****


