%nproc=1
%NoSave
%Mem=1900MB
#P OB98/GEN NMR

erre ene a

0 1
  C        4.839      57.038     -65.452
  O        5.824      56.344     -66.185
  H        4.450      57.849     -66.071
  H        5.287      57.467     -64.552
  H        4.011      56.381     -65.173
  P        6.231      54.869     -65.723
  C        6.764      52.607     -66.847
  O        6.277      53.931     -67.026
  C        7.073      51.933     -68.183
  O        5.896      51.947     -69.019
  C        8.176      52.654     -68.963
  O        9.493      52.244     -68.634
  C        7.833      52.290     -70.405
  O        8.453      51.053     -70.793
  C        6.308      52.140     -70.379
  N        5.180      54.817     -74.586
  C        6.095      53.791     -74.430
  N        6.817      53.472     -75.525
  N        6.283      53.161     -73.301
  C        5.559      53.658     -72.273
  C        4.639      54.682     -72.302
  C        4.382      55.325     -73.573
  O        3.572      56.226     -73.767
  N        4.129      54.938     -71.052
  C        4.805      54.130     -70.260
  N        5.625      53.279     -70.965
  O        4.918      54.341     -64.966
  O        7.428      54.779     -64.826
  H        9.422      51.175     -70.753
  H        5.176      53.724     -64.257
  H        5.059      55.244     -75.486
  H        4.708      54.086     -69.182
  H        5.984      51.254     -70.939
  H        8.196      53.054     -71.096
  H        6.774      53.979     -76.393
  H        8.082      53.738     -68.854
  H        7.627      52.859     -75.406
  H        7.329      50.881     -68.007
  H        5.981      52.057     -66.323
  H        7.649      52.611     -66.206
  P       10.763      52.976     -69.269
  C       13.112      53.752     -68.391
  O       11.898      53.075     -68.153
  O       10.267      54.488     -69.427
  O       11.252      52.409     -70.561
  H        9.980      54.663     -70.342
  H       13.727      53.699     -67.517
  H       12.909      54.777     -68.622
  H       13.620      53.294     -69.214

 6  7  8  9  10  11  12  13  14  15  26  29  33  34 0
 6-311+G(2d,p)
 ****
 36  38  39  40  41 0
 6-311+G(2d,p)
 ****
 1  2  3  4  5  16  17  18  19  20  21  22  23  24  25 0
 3-21G
 ****
 27  28  30  31  32  35  37  42  43  44  45  46  47 0
 3-21G
 ****
 48  49 0
 3-21G
 ****


