%nproc=1
%NoSave
%Mem=1900MB
#P OB98/GEN NMR

erre ene a

0 1
  C       96.258      61.805     136.016
  O       96.009      62.870     135.118
  H       95.509      61.027     135.851
  H       96.181      62.157     137.048
  H       97.251      61.385     135.834
  P       97.024      64.112     135.185
  C       95.297      65.634     136.373
  O       96.539      64.949     136.467
  C       95.473      67.109     136.724
  O       95.867      67.258     138.101
  C       96.541      67.826     135.907
  O       96.035      68.205     134.636
  C       96.810      69.035     136.791
  O       95.780      70.023     136.589
  C       96.698      68.445     138.208
  N       99.813      69.224     142.215
  C       98.699      69.868     141.805
  N       97.947      69.634     140.710
  C       98.450      68.614     139.995
  C       99.578      67.860     140.289
  C      100.272      68.196     141.465
  N      101.403      67.528     141.884
  N       99.787      66.897     139.325
  C       98.773      67.029     138.494
  N       97.955      68.077     138.837
  O       97.192      64.879     133.919
  O       98.349      63.394     135.727
  H       94.922      69.557     136.595
  H       98.125      62.719     136.393
  H       98.365      70.679     142.446
  H       98.575      66.385     137.644
  H       96.196      69.136     138.897
  H       97.762      69.516     136.558
  H       97.455      67.229     135.830
  H       94.497      67.599     136.611
  H       94.558      65.177     137.041
  H      101.933      67.939     142.638
  H      101.812      66.847     141.261
  H       94.942      65.531     135.343
  P       97.034      68.546     133.429
  C       96.849      71.088     133.768
  O       97.712      69.958     133.782
  O       96.427      68.472     132.069
  O       98.239      67.510     133.598
  H       98.551      67.202     132.726
  H       97.407      71.966     134.016
  H       96.067      70.948     134.484
  H       96.424      71.200     132.793

 6  7  8  9  10  11  12  13  14  15  25  28  32  33  34  35 0
 6-311+G(2d,p)
 ****
 36  39  40 0
 6-311+G(2d,p)
 ****
 1  2  3  4  5  16  17  18  19  20  21  22  23  24 0
 3-21G
 ****
 26  27  29  30  31  37  38  41  42  43  44  45  46  47 0
 3-21G
 ****
 48 0
 3-21G
 ****


