%nproc=1
%NoSave
%Mem=1900MB
#P OB98/GEN NMR

erre ene a

0 1
  C     -436.372    -332.109     150.828
  O     -436.162    -332.770     149.593
  H     -437.440    -331.910     150.941
  H     -435.830    -331.158     150.846
  H     -436.038    -332.742     151.655
  P     -434.644    -333.107     149.202
  C     -432.624    -331.732     148.314
  O     -433.937    -331.707     148.860
  C     -431.921    -330.410     148.617
  O     -431.921    -330.173     150.045
  C     -430.455    -330.380     148.199
  O     -430.297    -330.161     146.807
  C     -429.943    -329.219     149.039
  O     -430.201    -327.954     148.409
  C     -430.762    -329.364     150.342
  N     -429.969    -329.920     151.433
  C     -429.569    -329.017     152.416
  O     -429.858    -327.826     152.389
  N     -428.795    -329.532     153.422
  C     -428.352    -330.820     153.517
  O     -427.595    -331.200     154.401
  C     -428.814    -331.736     152.449
  C     -429.580    -331.249     151.472
  O     -434.791    -333.820     147.775
  O     -433.910    -333.959     150.188
  H     -434.692    -334.785     147.874
  H     -429.526    -327.862     147.701
  H     -428.490    -328.891     154.136
  H     -428.482    -332.767     152.496
  H     -429.909    -331.896     150.667
  H     -431.136    -328.382     150.665
  H     -428.862    -329.278     149.196
  H     -429.948    -331.296     148.521
  H     -432.478    -329.599     148.133
  H     -432.683    -331.862     147.228
  H     -432.074    -332.578     148.745
  P     -429.172    -330.996     146.028
  C     -426.660    -330.466     145.477
  O     -427.772    -330.269     146.328
  O     -429.497    -330.604     144.507
  O     -429.196    -332.459     146.326
  H     -429.804    -329.691     144.406
  H     -425.827    -329.901     145.842
  H     -426.906    -330.141     144.488
  H     -426.405    -331.505     145.458

 6  7  8  9  10  11  12  13  14  15  16  27  31  32  33  34  35 0
 6-311+G(2d,p)
 ****
 36  37 0
 6-311+G(2d,p)
 ****
 1  2  3  4  5  17  18  19  20  21  22  23  24  25 0
 3-21G
 ****
 26  28  29  30  38  39  40  41  42  43  44  45 0
 3-21G
 ****


