%nproc=1
%NoSave
%Mem=1900MB
#P OB98/GEN NMR

erre ene a

0 1
  C     -181.000    -150.071    -363.450
  O     -181.041    -149.865    -362.051
  P     -179.853    -150.415    -361.112
  C     -181.311    -150.996    -359.060
  O     -180.308    -150.127    -359.597
  C     -181.614    -150.605    -357.616
  O     -180.548    -151.015    -356.729
  C     -181.743    -149.105    -357.389
  O     -182.822    -148.440    -358.006
  C     -181.654    -149.017    -355.881
  O     -182.911    -149.326    -355.269
  C     -180.630    -150.139    -355.563
  N     -179.312    -149.598    -355.218
  C     -179.135    -149.224    -353.894
  O     -180.009    -149.337    -353.026
  N     -177.909    -148.689    -353.578
  C     -176.892    -148.444    -354.451
  O     -175.834    -147.911    -354.101
  C     -177.143    -148.845    -355.845
  C     -178.315    -149.396    -356.160
  O     -178.481    -149.922    -361.465
  O     -180.002    -152.005    -361.215
  H     -183.462    -148.517    -355.318
  H     -180.873    -152.362    -360.917
  H     -177.775    -148.401    -352.616
  H     -176.336    -148.680    -356.566
  H     -178.529    -149.706    -357.196
  H     -180.968    -150.766    -354.729
  H     -181.360    -148.032    -355.530
  H     -180.838    -148.624    -357.793
  H     -182.514    -151.135    -357.306
  H     -180.934    -152.013    -359.088
  H     -182.209    -150.960    -359.686
  P     -182.658    -147.582    -359.366
  C     -185.253    -147.526    -359.247
  O     -184.092    -147.495    -360.064
  O     -181.483    -147.914    -360.241
  O     -182.489    -146.098    -358.790
  H     -181.916    -145.594    -359.399
  H     -186.136    -147.495    -359.884
  H     -185.281    -146.647    -358.594
  H     -185.290    -148.442    -358.665
  H     -181.869    -149.638    -363.900
  H     -180.978    -151.121    -363.655
  H     -180.122    -149.610    -363.853

 3  4  5  6  7  8  9  10  11  12  13  23  28  29  30  31  32 0
 6-311+G(2d,p)
 ****
 33  34 0
 6-311+G(2d,p)
 ****
 1  2  14  15  16  17  18  19  20  21  22  24  25  26  27 0
 3-21G
 ****
 35  36  37  38  39  40  41  42  43  44  45 0
 3-21G
 ****


