%nproc=1
%NoSave
%Mem=1900MB
#P OB98/GEN NMR

erre ene a

0 1
  C     -890.610     645.712     486.607
  O     -891.790     644.992     486.339
  H     -889.780     645.006     486.705
  H     -890.720     646.270     487.542
  H     -890.390     646.402     485.783
  P     -893.130     645.863     486.141
  C     -894.190     644.853     483.976
  O     -894.180     644.903     485.394
  C     -895.200     643.808     483.479
  O     -894.610     642.489     483.633
  C     -896.520     643.795     484.269
  O     -897.560     643.350     483.382
  C     -896.240     642.738     485.310
  O     -897.440     642.336     485.948
  C     -895.520     641.712     484.460
  N     -895.880     637.987     487.931
  C     -896.810     638.733     487.329
  N     -896.650     639.698     486.396
  C     -895.340     639.850     486.098
  C     -894.280     639.156     486.635
  C     -894.570     638.175     487.598
  N     -893.620     637.418     488.241
  N     -893.070     639.596     486.087
  C     -893.430     640.539     485.227
  N     -894.780     640.725     485.211
  O     -892.720     646.921     485.012
  O     -893.650     646.527     487.372
  H     -897.310     641.542     486.494
  H     -892.430     647.753     485.426
  H     -897.850     638.528     487.615
  H     -892.750     641.107     484.608
  H     -896.210     641.185     483.785
  H     -895.590     643.130     486.102
  H     -896.790     644.790     484.680
  H     -895.370     643.969     482.406
  H     -893.180     644.594     483.628
  H     -894.460     645.836     483.578
  H     -893.910     636.750     488.930
  H     -892.640     637.565     488.006
  P     -898.890     644.253     483.209
  C     -898.510     645.016     480.727
  O     -899.290     644.268     481.661
  O     -898.320     645.731     483.411
  O     -900.000     643.961     484.166
  H     -899.020     646.308     483.763
  H     -898.926     644.908     479.747
  H     -897.504     644.651     480.730
  H     -898.516     646.049     481.005

 6  7  8  9  10  11  12  13  14  15  25  28  32  33  34  35 0
 6-311+G(2d,p)
 ****
 36  37  40 0
 6-311+G(2d,p)
 ****
 1  2  3  4  5  16  17  18  19  20  21  22  23  24 0
 3-21G
 ****
 26  27  29  30  31  38  39 41  42  43  44  45  46  47  48 0
 3-21G
 ****


