%nproc=1
%NoSave
%Mem=1900MB
#P OB98/GEN NMR

erre ene a

0 1
  C      324.521    -390.988     -72.960
  O      323.632    -390.735     -71.859
  P      324.058    -391.197     -70.382
  C      323.151    -388.970     -69.352
  O      323.175    -390.382     -69.313
  C      321.742    -388.466     -69.670
  O      321.430    -388.714     -71.064
  C      320.634    -389.146     -68.895
  O      320.549    -388.669     -67.556
  C      319.409    -388.808     -69.731
  O      318.915    -387.504     -69.428
  C      320.002    -388.854     -71.156
  N      319.621    -390.061     -71.895
  C      319.174    -389.886     -73.199
  O      319.031    -388.776     -73.724
  N      318.848    -391.035     -73.883
  C      318.853    -392.302     -73.370
  O      318.531    -393.287     -74.018
  C      319.265    -392.415     -71.964
  C      319.608    -391.310     -71.294
  O      325.494    -390.508     -70.218
  O      324.150    -392.676     -70.169
  H      318.607    -387.518     -68.493
  H      326.048    -391.037     -69.603
  H      318.545    -390.932     -74.829
  H      319.264    -393.397     -71.499
  H      319.916    -391.368     -70.248
  H      319.651    -387.981     -71.744
  H      318.584    -389.506     -69.574
  H      320.783    -390.234     -68.907
  H      321.723    -387.366     -69.504
  H      323.854    -388.615     -70.116
  H      323.483    -388.578     -68.373
  P      320.693    -389.759     -66.380
  C      321.569    -387.889     -64.772
  O      320.627    -388.906     -65.028
  O      322.224    -390.177     -66.539
  O      319.722    -390.890     -66.508
  H      322.786    -389.429     -66.830
  H      321.861    -387.380     -65.685
  H      322.440    -388.315     -64.276
  H      321.102    -387.151     -64.091
  H      324.084    -390.618     -73.864
  H      324.687    -392.041     -73.049
  H      325.454    -390.493     -72.786

 3  4  5  6  7  8  9  10  11  12  13  23  28  29  30  31  32 0
 6-311+G(2d,p)
 ****
 33  34 0
 6-311+G(2d,p)
 ****
 1  2  14  15  16  17  18  19  20  21  22  24  25  26 0
 3-21G
 ****
 27  35  36  37  38  39  40  41  42  43  44  45 0
 3-21G
 ****


