%nproc=1
%NoSave
%Mem=1900MB
#P OB98/GEN NMR

erre ene a

0 1
  C     -391.479     990.098     -69.307
  O     -390.428     990.937     -68.829
  P     -389.056     990.250     -68.368
  C     -387.773     989.931     -66.114
  O     -388.938     990.419     -66.781
  C     -387.626     990.589     -64.746
  O     -387.360     992.011     -64.920
  C     -388.841     990.460     -63.845
  O     -388.385     990.371     -62.483
  C     -389.556     991.791     -64.035
  O     -390.472     992.107     -63.002
  C     -388.344     992.722     -64.125
  N     -388.671     994.035     -64.700
  C     -387.990     995.132     -64.215
  O     -387.123     995.089     -63.325
  N     -388.358     996.351     -64.725
  C     -389.383     996.563     -65.589
  O     -389.760     997.694     -65.922
  C     -390.078     995.367     -66.078
  C     -389.700     994.160     -65.627
  O     -387.927     991.244     -68.935
  O     -388.854     988.850     -68.860
  H     -391.176     991.439     -63.016
  H     -387.556     990.893     -69.754
  H     -387.869     997.170     -64.387
  H     -390.889     995.503     -66.809
  H     -390.203     993.267     -65.956
  H     -387.904     992.858     -63.134
  H     -390.117     991.772     -64.981
  H     -389.493     989.602     -64.076
  H     -386.737     990.165     -64.266
  H     -386.904     990.149     -66.727
  H     -387.849     988.830     -66.009
  P     -389.391     989.766     -61.377
  C     -390.121     990.898     -59.126
  O     -389.945     991.013     -60.534
  O     -388.368     989.062     -60.387
  O     -390.415     988.822     -61.948
  H     -387.564     989.601     -60.210
  H     -389.358     990.262     -58.682
  H     -391.100     990.503     -58.914
  H     -390.037     991.896     -58.697
  H     -392.322     990.700     -69.574
  H     -391.762     989.408     -68.539
  H     -391.141     989.557     -70.166

 3  4  5  6  7  8  9  10  11  12  13  23  28  29  30  31  32 0
 6-311+G(2d,p)
 ****
 33  34 0
 6-311+G(2d,p)
 ****
 1  2  14  15  16  17  18  19  20  21  22  24  25  26 0
 3-21G
 ****
 27  35  36  37  38  39  40  41  42  43  44  45 0
 3-21G
 ****


