%nproc=1
%NoSave
%Mem=1900MB
#P OB98/GEN NMR

erre ene a

0 1
  C      293.305      97.792     210.905
  O      293.535      96.397     210.977
  H      292.523      98.082     211.611
  H      294.230      98.314     211.160
  H      293.008      98.068     209.886
  P      292.281      95.440     210.674
  C      292.643      93.309     212.115
  O      292.802      93.924     210.837
  C      293.313      91.929     212.105
  O      292.781      91.164     210.999
  C      294.845      91.964     211.984
  O      295.447      91.297     213.096
  C      295.138      91.151     210.726
  O      296.277      90.302     210.859
  C      293.854      90.349     210.521
  N      295.422      87.266     206.775
  C      295.484      87.142     208.118
  N      294.959      87.944     209.063
  C      294.276      88.957     208.490
  C      294.099      89.198     207.139
  C      294.737      88.307     206.253
  N      294.721      88.465     204.883
  N      293.354      90.349     206.934
  C      293.106      90.810     208.152
  N      293.670      90.018     209.120
  O      292.079      95.593     209.094
  O      291.037      95.767     211.428
  H      296.051      89.636     211.542
  H      291.131      95.754     208.901
  H      296.047      86.280     208.483
  H      292.579      91.728     208.385
  H      293.858      89.409     211.092
  H      295.309      91.843     209.891
  H      295.242      92.978     211.898
  H      293.016      91.403     213.030
  H      291.576      93.184     212.327
  H      295.285      87.849     204.334
  H      294.296      89.300     204.503
  H      293.081      93.953     212.878
  P      295.971      92.237     214.300
  C      298.277      91.156     214.864
  O      296.913      91.336     215.237
  O      294.659      92.451     215.188
  O      296.554      93.538     213.842
  H      294.712      93.293     215.676
  H      298.765      90.535     215.586
  H      298.764      92.108     214.824
  H      298.325      90.690     213.902

 6  7  8  9  10  11  12  13  14  15  25  28  32  33  34  35 0
 6-311+G(2d,p)
 ****
 36  39  40 0
 6-311+G(2d,p)
 ****
 1  2  3  4  5  16  17  18  19  20  21  22  23  24 0
 3-21G
 ****
 26  27  29  30  31  37  38  41  42  43  44  45  46  47  48 0
 3-21G
 ****


