%nproc=1
%NoSave
%Mem=1900MB
#P OB98/GEN NMR

erre ene a

0 1
  C      151.400    -313.441     134.466
  O      149.991    -313.514     134.366
  H      151.682    -313.522     135.518
  H      151.750    -312.479     134.080
  H      151.865    -314.259     133.909
  P      149.375    -313.593     132.885
  C      147.343    -315.004     133.765
  O      147.805    -313.852     133.082
  C      145.813    -315.022     133.818
  O      145.364    -313.901     134.619
  C      145.150    -314.912     132.444
  O      143.961    -315.705     132.452
  C      144.773    -313.442     132.355
  O      143.713    -313.215     131.432
  C      144.441    -313.129     133.823
  N      144.533    -311.701     134.123
  C      143.704    -311.219     135.140
  O      142.935    -311.981     135.727
  N      143.733    -309.882     135.441
  C      144.476    -309.081     134.744
  N      144.441    -307.763     135.075
  C      145.333    -309.539     133.632
  C      145.320    -310.848     133.385
  O      149.933    -315.004     132.374
  O      149.725    -312.437     132.009
  H      144.052    -313.370     130.523
  H      149.856    -315.712     133.035
  H      145.926    -308.831     133.072
  H      145.924    -311.271     132.593
  H      143.425    -313.467     134.067
  H      145.635    -312.852     132.026
  H      145.805    -315.232     131.630
  H      145.494    -315.932     134.338
  H      143.823    -307.490     135.828
  H      147.741    -315.027     134.784
  H      144.934    -307.044     134.566
  H      147.715    -315.885     133.234
  P      143.982    -317.162     131.791
  C      142.632    -318.398     133.619
  O      142.683    -317.975     132.262
  O      145.271    -317.904     131.900
  O      143.648    -316.852     130.249
  H      144.219    -317.425     129.701
  H      141.717    -318.925     133.794
  H      142.680    -317.543     134.261
  H      143.460    -319.044     133.823

 6  7  8  9  10  11  12  13  14  15  16  26  30  31  32  33  35 0
 6-311+G(2d,p)
 ****
 37  38 0
 6-311+G(2d,p)
 ****
 1  2  3  4  5  17  18  19  20  21  22  23  24  25 0
 3-21G
 ****
 27  28  29  34  36  39  40  41  42  43  44  45  46 0
 3-21G
 ****


