%nproc=1
%NoSave
%Mem=1900MB
#P OB98/GEN NMR

erre ene a

0 1
  C     -262.992     489.549      38.886
  O     -262.841     488.690      39.995
  H     -262.314     490.400      39.003
  H     -264.017     489.927      38.841
  H     -262.745     489.029      37.956
  P     -263.626     487.292      39.958
  C     -261.938     486.804      41.872
  O     -263.189     486.484      41.277
  C     -261.478     485.669      42.787
  O     -262.319     485.654      43.971
  C     -261.557     484.286      42.137
  O     -260.427     483.515      42.564
  C     -262.824     483.685      42.717
  O     -262.809     482.257      42.714
  C     -262.858     484.324      44.111
  N     -264.215     484.348      44.658
  C     -264.359     483.972      45.995
  O     -263.369     483.641      46.657
  N     -265.612     483.932      46.544
  C     -266.649     484.154      45.796
  N     -267.869     484.068      46.389
  C     -266.552     484.486      44.359
  C     -265.313     484.572      43.862
  O     -262.900     486.489      38.780
  O     -265.101     487.391      39.754
  H     -263.445     481.942      43.390
  H     -263.522     485.892      38.323
  H     -267.441     484.640      43.770
  H     -265.146     484.800      42.820
  H     -262.211     483.774      44.805
  H     -263.689     484.016      42.127
  H     -261.581     484.320      41.043
  H     -260.457     485.885      43.124
  H     -267.895     483.823      47.372
  H     -262.051     487.718      42.466
  H     -268.744     484.179      45.896
  H     -261.198     486.986      41.084
  P     -259.336     483.151      41.443
  C     -257.120     483.280      42.794
  O     -258.091     482.452      42.166
  O     -258.770     484.583      41.003
  O     -259.901     482.400      40.283
  H     -259.088     484.809      40.108
  H     -256.357     482.668      43.228
  H     -257.589     483.862      43.559
  H     -256.683     483.932      42.067

 6  7  8  9  10  11  12  13  14  15  16  26  30  31  32  33  35 0
 6-311+G(2d,p)
 ****
 37  38 0
 6-311+G(2d,p)
 ****
 1  2  3  4  5  17  18  19  20  21  22  23  24  25 0
 3-21G
 ****
 27  28  29  34  36  39  40  41  42  43  44  45  46 0
 3-21G
 ****


