%nproc=1
%NoSave
%Mem=1900MB
#P OB98/GEN NMR

erre ene a

0 1
  C      923.739     548.886    -495.299
  O      924.305     548.171    -494.217
  H      924.515     549.062    -496.048
  H      923.358     549.850    -494.952
  H      922.928     548.307    -495.751
  P      923.311     547.778    -493.021
  C      924.561     545.695    -492.068
  O      924.219     547.067    -491.906
  C      925.860     545.565    -492.872
  O      926.784     546.602    -492.435
  C      926.569     544.210    -492.686
  O      927.281     543.896    -493.892
  C      927.565     544.543    -491.585
  O      928.566     543.556    -491.520
  C      928.001     545.933    -492.043
  N      932.471     546.619    -489.680
  C      932.113     545.865    -490.746
  N      930.907     545.742    -491.319
  C      930.005     546.528    -490.698
  C      930.215     547.357    -489.610
  C      931.518     547.383    -489.087
  N      931.882     548.137    -487.991
  N      929.046     547.989    -489.246
  C      928.139     547.560    -490.107
  N      928.678     546.673    -491.009
  O      922.451     546.579    -493.639
  O      922.444     548.883    -492.509
  H      929.205     543.747    -490.803
  H      921.633     546.924    -494.040
  H      932.919     545.276    -491.187
  H      927.091     547.837    -490.121
  H      928.666     545.896    -492.914
  H      927.078     544.583    -490.607
  H      925.892     543.399    -492.438
  H      925.646     545.763    -493.938
  H      923.740     545.192    -492.596
  H      924.700     545.242    -491.085
  H      932.830     548.079    -487.663
  H      931.169     548.682    -487.512
  P      926.556     543.012    -495.018
  C      927.395     543.924    -497.321
  O      927.478     542.910    -496.331
  O      925.382     543.987    -495.507
  O      925.981     541.713    -494.538
  H      924.547     543.497    -495.565
  H      928.071     543.699    -498.119
  H      927.655     544.867    -496.888
  H      926.396     543.969    -497.702

 6  7  8  9  10  11  12  13  14  15  25  28  32  33  34  35 0
 6-311+G(2d,p)
 ****
 36  37  40 0
 6-311+G(2d,p)
 ****
 1  2  3  4  5  16  17  18  19  20  21  22  23  24 0
 3-21G
 ****
 26  27  29  30  31  38  39 41  42  43  44  45  46  47  48 0
 3-21G
 ****


