%nproc=1
%NoSave
%Mem=1900MB
#P OB98/GEN NMR

erre ene a

0 1
  C      491.025    -133.223    -489.622
  O      492.227    -132.537    -489.356
  H      490.304    -132.527    -490.056
  H      490.613    -133.612    -488.687
  H      491.191    -134.049    -490.326
  P      493.540    -133.420    -489.093
  C      494.538    -132.998    -491.454
  O      494.033    -133.953    -490.525
  C      494.512    -133.566    -492.877
  O      493.216    -134.198    -493.097
  C      494.718    -132.516    -493.982
  O      495.484    -133.102    -495.035
  C      493.303    -132.287    -494.481
  O      493.287    -131.766    -495.816
  C      492.721    -133.683    -494.349
  N      488.773    -134.995    -497.172
  C      490.117    -135.322    -497.285
  N      490.476    -136.062    -498.360
  N      491.027    -134.943    -496.431
  C      490.526    -134.221    -495.403
  C      489.232    -133.825    -495.169
  C      488.231    -134.236    -496.135
  O      487.041    -133.966    -496.100
  N      489.144    -133.054    -494.041
  C      490.396    -132.961    -493.596
  N      491.269    -133.657    -494.389
  O      492.940    -134.734    -488.393
  O      494.595    -132.776    -488.254
  H      493.729    -130.897    -495.809
  H      492.995    -134.642    -487.421
  H      488.121    -135.291    -497.870
  H      490.720    -132.398    -492.736
  H      493.051    -134.360    -495.152
  H      492.787    -131.565    -493.827
  H      489.828    -136.418    -499.047
  H      495.211    -131.597    -493.632
  H      491.449    -136.346    -498.437
  H      495.271    -134.360    -492.949
  H      495.573    -132.752    -491.185
  H      493.935    -132.086    -491.400
  P      497.062    -133.292    -494.812
  C      496.995    -135.892    -494.959
  O      497.314    -134.739    -494.184
  O      497.368    -132.303    -493.593
  O      497.886    -132.957    -496.013
  H      498.262    -131.919    -493.697
  H      497.222    -136.774    -494.397
  H      497.571    -135.886    -495.861
  H      495.953    -135.882    -495.201

 6  7  8  9  10  11  12  13  14  15  26  29  33  34 0
 6-311+G(2d,p)
 ****
 36  38  39  40  41 0
 6-311+G(2d,p)
 ****
 1  2  3  4  5  16  17  18  19  20  21  22  23  24  25 0
 3-21G
 ****
 27  28  30  31  32  35  37  42  43  44  45  46  47 0
 3-21G
 ****
 48  49 0
 3-21G
 ****


