%nproc=1
%NoSave
%Mem=1900MB
#P OB98/GEN NMR

erre ene a

0 1
  C     -897.490    -820.879    -266.495
  O     -896.880    -819.693    -266.962
  H     -898.570    -820.799    -266.637
  H     -897.280    -821.009    -265.427
  H     -897.120    -821.752    -267.050
  P     -895.280    -819.627    -267.058
  C     -895.100    -819.486    -269.628
  O     -894.870    -820.283    -268.472
  C     -894.430    -820.126    -270.844
  O     -893.030    -820.381    -270.552
  C     -895.020    -821.471    -271.248
  O     -896.240    -821.300    -271.923
  C     -893.890    -822.033    -272.094
  O     -893.920    -821.475    -273.419
  C     -892.640    -821.547    -271.319
  N     -892.070    -822.581    -270.448
  C     -891.570    -823.711    -271.077
  O     -891.640    -823.880    -272.298
  N     -891.010    -824.662    -270.259
  C     -890.980    -824.614    -268.903
  O     -890.510    -825.523    -268.208
  C     -891.550    -823.409    -268.288
  C     -892.050    -822.458    -269.071
  O     -894.540    -820.164    -265.879
  O     -894.980    -818.073    -267.287
  H     -893.410    -822.085    -273.986
  H     -894.710    -817.663    -266.437
  H     -890.660    -825.491    -270.709
  H     -891.540    -823.346    -267.192
  H     -892.490    -821.567    -268.639
  H     -891.870    -821.219    -272.011
  H     -893.950    -823.120    -272.215
  H     -895.140    -822.109    -270.361
  H     -894.470    -819.404    -271.679
  H     -894.680    -818.488    -269.468
  H     -896.180    -819.402    -269.786
  P     -897.310    -822.491    -271.995
  C     -899.330    -821.743    -270.597
  O     -898.130    -822.504    -270.615
  O     -896.760    -823.810    -272.409
  O     -898.410    -821.970    -273.044
  H     -898.300    -822.443    -273.897
  H     -899.790    -821.824    -269.634
  H     -900.000    -822.115    -271.344
  H     -899.105    -820.717    -270.799

 6  7  8  9  10  11  12  13  14  15  16  26  31  32  33  34  35 0
 6-311+G(2d,p)
 ****
 36  37 0
 6-311+G(2d,p)
 ****
 1  2  3  4  5  17  18  19  20  21  22  23  24  25 0
 3-21G
 ****
 27  28  29  30  38  39  40  41  42  43  44  45 0
 3-21G
 ****


