%nproc=1
%NoSave
%Mem=1900MB
#P OB98/GEN NMR

erre ene a

0 1
  C     -171.429    -893.940     300.290
  O     -171.702    -895.060     301.119
  H     -170.345    -893.760     300.305
  H     -171.940    -893.050     300.660
  H     -171.729    -894.150     299.255
  P     -173.225    -895.500     301.326
  C     -172.722    -896.970     299.265
  O     -173.697    -896.200     299.949
  C     -173.368    -897.720     298.090
  O     -174.305    -898.680     298.643
  C     -174.141    -896.770     297.156
  O     -173.764    -896.890     295.797
  C     -175.608    -897.050     297.511
  O     -176.522    -896.780     296.471
  C     -175.573    -898.510     297.977
  N     -176.671    -898.870     298.887
  C     -177.835    -899.340     298.316
  O     -178.017    -899.510     297.107
  N     -178.854    -899.650     299.191
  C     -178.800    -899.520     300.546
  O     -179.741    -899.810     301.277
  C     -177.537    -898.990     301.089
  C     -176.554    -898.690     300.253
  O     -174.147    -894.440     301.833
  O     -173.129    -896.740     302.347
  H     -176.196    -897.230     295.660
  H     -173.382    -896.440     303.244
  H     -179.700    -900.000     298.785
  H     -177.471    -898.850     302.150
  H     -175.614    -898.280     300.619
  H     -175.608    -899.180     297.128
  H     -175.877    -896.400     298.361
  H     -173.923    -895.720     297.390
  H     -172.596    -898.270     297.545
  H     -172.303    -897.700     299.978
  H     -171.927    -896.320     298.903
  P     -173.292    -895.690     294.861
  C     -171.757    -897.310     293.487
  O     -171.891    -896.080     294.204
  O     -173.391    -894.320     295.469
  O     -174.331    -895.750     293.611
  H     -174.449    -894.810     293.321
  H     -170.756    -897.402     293.120
  H     -172.441    -897.319     292.664
  H     -171.974    -898.129     294.140

 6  7  8  9  10  11  12  13  14  15  16  26  31  32  33  34  35 0
 6-311+G(2d,p)
 ****
 36  37 0
 6-311+G(2d,p)
 ****
 1  2  3  4  5  17  18  19  20  21  22  23  24  25 0
 3-21G
 ****
 27  28  29  30  38  39  40  41  42  43  44  45 0
 3-21G
 ****


