%nproc=1
%NoSave
%Mem=1900MB
#P OB98/GEN NMR

erre ene a

0 1
  C       71.906     -27.002    -163.351
  O       70.861     -26.026    -163.298
  P       70.677     -25.072    -164.573
  C       68.602     -26.064    -165.793
  O       69.123     -25.034    -164.961
  C       67.791     -25.455    -166.939
  O       67.349     -26.470    -167.860
  C       66.524     -24.760    -166.472
  O       66.823     -23.488    -165.934
  C       65.700     -24.708    -167.754
  O       65.955     -23.508    -168.502
  C       66.186     -25.953    -168.532
  N       65.156     -26.970    -168.664
  C       64.126     -26.682    -169.566
  O       64.115     -25.612    -170.175
  N       63.125     -27.605    -169.733
  C       63.138     -28.703    -169.042
  N       62.117     -29.576    -169.246
  C       64.192     -29.030    -168.059
  C       65.160     -28.127    -167.922
  O       71.334     -25.918    -165.763
  O       71.325     -23.734    -164.426
  H       65.473     -23.617    -169.347
  H       71.744     -25.322    -166.414
  H       64.157     -29.953    -167.502
  H       65.976     -28.284    -167.223
  H       66.510     -25.668    -169.541
  H       64.627     -24.723    -167.540
  H       66.010     -25.380    -165.727
  H       68.432     -24.744    -167.478
  H       61.410     -29.319    -169.924
  H       67.972     -26.737    -165.208
  H       62.024     -30.455    -168.758
  H       69.434     -26.665    -166.175
  P       66.326     -23.173    -164.445
  C       66.891     -24.964    -162.695
  O       67.387     -23.904    -163.488
  O       65.047     -24.132    -164.309
  O       65.999     -21.757    -164.116
  H       64.590     -23.964    -163.466
  H       67.738     -25.500    -162.260
  H       66.309     -25.662    -163.302
  H       66.275     -24.566    -161.885
  H       71.915     -27.565    -162.441
  H       72.848     -26.510    -163.475
  H       71.737     -27.661    -164.177

 3  4  5  6  7  8  9  10  11  12  13  21  23  27  28  29  30  32 0
 6-311+G(2d,p)
 ****
 34  35 0
 6-311+G(2d,p)
 ****
 1  2  14  15  16  17  18  19  20  22  24  25  26 0
 3-21G
 ****
 31  33  36  37  38  39  40  41  42  43  44  45  46 0
 3-21G
 ****


