%nproc=1
%NoSave
%Mem=1900MB
#P OB98/GEN NMR

erre ene a

0 1
  C       46.072      27.083      29.056
  O       47.032      28.152      29.096
  P       46.779      29.465      28.204
  C       48.171      28.633      26.151
  O       46.917      29.069      26.655
  C       48.051      28.298      24.661
  O       47.669      29.472      23.907
  C       49.345      27.819      24.020
  O       49.633      26.471      24.352
  C       49.043      28.027      22.540
  O       48.288      26.924      22.009
  C       48.187      29.309      22.569
  N       48.928      30.490      22.136
  C       49.408      30.474      20.832
  O       49.285      29.510      20.079
  N       50.073      31.600      20.427
  C       50.357      32.688      21.204
  O       50.974      33.660      20.790
  C       49.894      32.611      22.597
  C       49.217      31.531      22.994
  O       48.126      30.301      28.452
  O       45.579      30.276      28.568
  H       47.905      27.230      21.163
  H       47.941      31.253      28.352
  H       50.404      31.623      19.476
  H       50.119      33.442      23.253
  H       48.868      31.461      24.020
  H       47.310      29.191      21.921
  H       49.951      28.113      21.936
  H       50.172      28.475      24.312
  H       47.260      27.546      24.543
  H       48.486      27.737      26.694
  H       48.913      29.420      26.311
  P       50.845      26.225      25.378
  C       52.536      26.084      23.390
  O       52.160      26.704      24.599
  O       50.921      24.626      25.379
  O       50.610      26.839      26.718
  H       50.689      24.247      24.514
  H       51.664      25.762      22.814
  H       53.166      25.217      23.608
  H       53.109      26.797      22.791
  H       46.391      26.293      29.703
  H       45.991      26.714      28.055
  H       45.119      27.447      29.381

 3  4  5  6  7  8  9  10  11  12  13  23  28  29  30  31  32 0
 6-311+G(2d,p)
 ****
 33  34 0
 6-311+G(2d,p)
 ****
 1  2  14  15  16  17  18  19  20  21  22  24  25  26 0
 3-21G
 ****
 27  35  36  37  38  39  40  41  42  43  44  45 0
 3-21G
 ****


