%nproc=1
%NoSave
%Mem=1900MB
#P OB98/GEN NMR

erre ene a

0 1
  C      189.625    -477.086     298.729
  O      189.636    -477.018     297.320
  H      188.887    -477.837     299.041
  H      189.328    -476.122     299.147
  H      190.606    -477.374     299.113
  P      190.722    -476.092     296.594
  C      189.505    -473.891     297.163
  O      190.688    -474.658     297.315
  C      189.692    -472.481     297.739
  O      188.529    -471.682     297.397
  C      189.849    -472.452     299.261
  O      190.797    -471.443     299.615
  C      188.471    -472.068     299.753
  O      188.512    -471.420     301.025
  C      187.976    -471.159     298.621
  N      183.789    -469.856     301.140
  C      185.125    -469.668     301.464
  N      185.380    -469.060     302.647
  N      186.112    -470.047     300.703
  C      185.707    -470.622     299.544
  C      184.429    -470.860     299.102
  C      183.341    -470.452     299.969
  O      182.145    -470.605     299.740
  N      184.431    -471.481     297.878
  C      185.707    -471.619     297.580
  N      186.524    -471.122     298.562
  O      190.609    -476.042     295.098
  O      192.129    -476.695     297.052
  H      187.645    -470.980     301.153
  H      192.546    -477.209     296.330
  H      183.073    -469.550     301.767
  H      186.089    -472.069     296.676
  H      188.325    -470.123     298.741
  H      187.845    -472.964     299.843
  H      184.662    -468.722     303.270
  H      190.182    -473.414     299.658
  H      186.347    -468.889     302.903
  H      190.551    -472.017     297.242
  H      188.695    -474.397     297.695
  H      189.249    -473.831     296.096
  P      192.139    -471.863     300.383
  C      191.475    -470.935     302.700
  O      191.795    -472.097     301.942
  O      193.323    -470.985     300.134
  O      192.402    -473.348     299.859
  H      193.367    -473.495     299.796
  H      191.267    -471.215     303.712
  H      190.615    -470.459     302.278
  H      192.303    -470.257     302.680

 6  7  8  9  10  11  12  13  14  15  26  29  33  34 0
 6-311+G(2d,p)
 ****
 36  38  39  40  41 0
 6-311+G(2d,p)
 ****
 1  2  3  4  5  16  17  18  19  20  21  22  23  24  25 0
 3-21G
 ****
 27  28  30  31  32  35  37  42  43  44  45  46  47 0
 3-21G
 ****
 48  49 0
 3-21G
 ****


