%nproc=1
%NoSave
%Mem=1900MB
#P OB98/GEN NMR

erre ene a

0 1
  C     -247.742     143.876     161.899
  O     -249.045     144.290     162.259
  H     -247.118     144.745     161.677
  H     -247.302     143.331     162.739
  H     -247.782     143.212     161.030
  P     -249.879     145.086     161.143
  C     -251.876     143.484     160.721
  O     -251.414     144.669     161.351
  C     -253.398     143.420     160.767
  O     -253.844     143.147     162.110
  C     -254.101     144.711     160.358
  O     -254.163     144.852     158.944
  C     -255.481     144.483     160.955
  O     -256.243     143.607     160.104
  C     -255.146     143.771     162.274
  N     -257.927     146.631     165.481
  C     -258.279     145.784     164.489
  N     -257.481     145.043     163.692
  C     -256.191     145.223     164.016
  C     -255.678     146.033     165.015
  C     -256.607     146.769     165.770
  N     -256.228     147.682     166.741
  N     -254.295     145.969     165.037
  C     -253.986     145.151     164.053
  N     -255.094     144.669     163.411
  O     -249.459     144.339     159.787
  O     -249.609     146.553     161.074
  H     -257.122     143.507     160.518
  H     -248.748     144.845     159.350
  H     -259.345     145.696     164.307
  H     -252.977     144.880     163.767
  H     -255.860     142.975     162.510
  H     -256.058     145.405     161.069
  H     -253.645     145.587     160.832
  H     -253.722     142.582     160.135
  H     -251.462     142.610     161.241
  H     -256.890     148.443     166.861
  H     -255.246     147.931     166.721
  H     -251.527     143.477     159.684
  P     -254.645     146.263     158.357
  C     -253.205     146.170     156.207
  O     -254.516     146.160     156.759
  O     -253.452     147.246     158.772
  O     -255.953     146.756     158.872
  H     -253.803     147.995     159.290
  H     -253.266     146.096     155.141
  H     -252.650     145.340     156.591
  H     -252.713     147.082     156.474

 6  7  8  9  10  11  12  13  14  15  25  28  32  33  34  35 0
 6-311+G(2d,p)
 ****
 36  39  40 0
 6-311+G(2d,p)
 ****
 1  2  3  4  5  16  17  18  19  20  21  22  23  24 0
 3-21G
 ****
 26  27  29  30  31  37  38  41  42  43  44  45  46  47  48 0
 3-21G
 ****


