%nproc=1
%NoSave
%Mem=1900MB
#P OB98/GEN NMR

erre ene a

0 1
  C      -15.768    -897.500     -26.045
  O      -15.814    -896.970     -27.350
  H      -15.089    -898.360     -26.043
  H      -16.768    -897.850     -25.751
  H      -15.407    -896.760     -25.320
  P      -16.347    -895.480     -27.551
  C      -14.078    -894.260     -27.291
  O      -15.375    -894.480     -26.742
  C      -13.039    -894.000     -26.202
  O      -12.595    -895.240     -25.649
  C      -11.800    -893.270     -26.745
  O      -11.901    -891.860     -26.770
  C      -10.727    -893.740     -25.756
  O      -10.649    -892.860     -24.621
  C      -11.193    -895.140     -25.349
  N       -8.061    -899.140     -24.837
  C       -8.437    -898.210     -23.880
  N       -7.877    -898.350     -22.664
  N       -9.265    -897.220     -24.122
  C       -9.660    -897.160     -25.421
  C       -9.345    -898.010     -26.439
  C       -8.485    -899.140     -26.156
  O       -8.136    -900.000     -26.954
  N       -9.915    -897.610     -27.637
  C      -10.489    -896.470     -27.332
  N      -10.440    -896.200     -25.989
  O      -17.689    -895.440     -26.668
  O      -16.632    -895.080     -28.970
  H      -11.537    -892.790     -24.225
  H      -18.324    -894.820     -27.072
  H       -7.435    -899.890     -24.576
  H      -11.001    -895.820     -28.040
  H      -11.087    -895.270     -24.262
  H       -9.737    -893.710     -26.229
  H       -7.159    -899.020     -22.444
  H      -11.538    -893.660     -27.735
  H       -7.967    -897.570     -21.998
  H      -13.502    -893.420     -25.387
  H      -14.172    -893.380     -27.950
  H      -13.780    -895.110     -27.911
  P      -11.424    -891.020     -28.042
  C      -13.445    -889.360     -28.285
  O      -12.715    -890.460     -28.790
  O      -10.884    -892.160     -29.037
  O      -10.395    -889.970     -27.775
  H       -9.924    -892.230     -28.989
  H      -14.268    -889.149     -28.935
  H      -12.806    -888.503     -28.229
  H      -13.813    -889.595     -27.308

 6  7  8  9  10  11  12  13  14  15  26  29  33  34 0
 6-311+G(2d,p)
 ****
 36  38  39  40  41 0
 6-311+G(2d,p)
 ****
 1  2  3  4  5  16  17  18  19  20  21  22  23  24  25 0
 3-21G
 ****
 27  28  30  31  32  35  37  42  43  44  45  46  47 0
 3-21G
 ****
 48  49 0
 3-21G
 ****


