%nproc=1
%NoSave
%Mem=1900MB
#P OB98/GEN NMR

erre ene a

0 1
  C      512.286      48.890     -17.432
  O      512.682      50.181     -17.011
  H      511.222      48.761     -17.210
  H      512.850      48.120     -16.902
  H      512.432      48.786     -18.509
  P      514.233      50.572     -17.076
  C      513.859      52.861     -18.201
  O      514.299      52.176     -17.034
  C      512.402      53.300     -18.054
  O      512.290      54.140     -16.873
  C      511.875      54.093     -19.253
  O      510.511      53.732     -19.469
  C      511.976      55.526     -18.775
  O      511.085      56.376     -19.473
  C      511.701      55.390     -17.274
  N      512.254      56.521     -16.531
  C      511.403      57.613     -16.325
  O      510.245      57.586     -16.753
  N      511.893      58.734     -15.710
  C      513.142      58.785     -15.370
  N      513.579      59.940     -14.797
  C      514.086      57.670     -15.590
  C      513.584      56.582     -16.165
  O      515.026      49.944     -18.171
  O      514.789      50.151     -15.634
  H      511.211      57.300     -19.171
  H      515.117      49.233     -15.659
  H      515.123      57.768     -15.296
  H      514.201      55.713     -16.378
  H      510.623      55.334     -17.079
  H      512.995      55.901     -18.940
  H      512.458      53.926     -20.166
  H      511.784      52.411     -17.868
  H      512.900      60.688     -14.689
  H      513.950      52.172     -19.046
  H      514.533      60.117     -14.533
  H      514.499      53.729     -18.383
  P      510.053      53.055     -20.853
  C      507.644      52.198     -20.808
  O      508.482      53.317     -21.071
  O      510.473      51.633     -21.020
  O      510.737      53.977     -21.974
  H      510.932      53.436     -22.763
  H      506.623      52.469     -20.980
  H      507.765      51.893     -19.790
  H      507.913      51.391     -21.457

 6  7  8  9  10  11  12  13  14  15  16  26  30  31  32  33  35 0
 6-311+G(2d,p)
 ****
 37  38 0
 6-311+G(2d,p)
 ****
 1  2  3  4  5  17  18  19  20  21  22  23  24  25 0
 3-21G
 ****
 27  28  29  34  36  39  40  41  42  43  44  45  46 0
 3-21G
 ****


