%nproc=1
%NoSave
%Mem=1900MB
#P OB98/GEN NMR

erre ene a

0 1
  C      -69.110     471.773      61.459
  O      -69.381     473.150      61.325
  H      -68.253     471.648      62.124
  H      -68.861     471.353      60.481
  H      -69.963     471.235      61.882
  P      -70.822     473.603      60.800
  C      -69.974     473.903      58.379
  O      -70.913     473.260      59.232
  C      -69.514     472.983      57.249
  O      -69.031     471.738      57.802
  C      -70.647     472.625      56.284
  O      -70.838     473.556      55.231
  C      -70.188     471.274      55.741
  O      -69.342     471.433      54.592
  C      -69.397     470.676      56.912
  N      -70.015     465.702      57.924
  C      -69.217     466.299      56.967
  N      -68.532     465.459      56.162
  N      -69.124     467.593      56.814
  C      -69.942     468.298      57.626
  C      -70.791     467.817      58.598
  C      -70.834     466.388      58.813
  O      -71.512     465.812      59.655
  N      -71.499     468.832      59.195
  C      -71.141     469.910      58.527
  N      -70.140     469.648      57.619
  O      -70.730     475.206      60.795
  O      -71.985     473.143      61.624
  H      -69.061     470.543      54.300
  H      -71.610     475.582      60.976
  H      -70.025     464.703      58.015
  H      -71.539     470.904      58.686
  H      -68.466     470.211      56.567
  H      -71.042     470.672      55.425
  H      -68.632     464.458      56.180
  H      -71.584     472.475      56.825
  H      -68.086     465.847      55.329
  H      -68.672     473.448      56.722
  H      -69.125     474.179      59.005
  H      -70.399     474.825      57.973
  P      -72.282     474.174      54.934
  C      -72.477     473.183      52.510
  O      -72.994     473.281      53.820
  O      -71.940     475.531      54.157
  O      -73.137     474.415      56.136
  H      -71.979     476.292      54.765
  H      -73.102     472.539      51.927
  H      -71.486     472.781      52.547
  H      -72.452     474.155      52.063

 6  7  8  9  10  11  12  13  14  15  26  29  33  34 0
 6-311+G(2d,p)
 ****
 36  38  39  40  41 0
 6-311+G(2d,p)
 ****
 1  2  3  4  5  16  17  18  19  20  21  22  23  24  25 0
 3-21G
 ****
 27  28  30  31  32  35  37  42  43  44  45  46  47 0
 3-21G
 ****
 48  49 0
 3-21G
 ****


