%nproc=1
%NoSave
%Mem=1900MB
#P OB98/GEN NMR

erre ene a

0 1
  C      370.620    -949.513     304.722
  O      371.076    -948.195     304.462
  P      371.193    -947.715     302.940
  C      369.791    -945.541     302.606
  O      369.820    -946.962     302.558
  C      368.829    -945.000     301.554
  O      369.202    -945.509     300.241
  C      367.360    -945.382     301.793
  O      366.548    -944.290     301.334
  C      367.174    -946.570     300.870
  O      365.817    -946.841     300.563
  C      368.024    -946.122     299.677
  N      368.365    -947.221     298.770
  C      367.857    -947.158     297.479
  O      367.152    -946.243     297.054
  N      368.140    -948.234     296.678
  C      368.781    -949.379     297.057
  O      368.902    -950.347     296.323
  C      369.295    -949.383     298.434
  C      369.061    -948.320     299.216
  O      371.114    -949.080     302.112
  O      372.428    -946.940     302.622
  H      365.469    -946.076     300.066
  H      372.010    -949.367     301.839
  H      367.793    -948.203     295.725
  H      369.829    -950.270     298.768
  H      369.416    -948.317     300.245
  H      367.497    -945.341     299.114
  H      367.599    -947.467     301.343
  H      367.125    -945.613     302.835
  H      368.939    -943.907     301.514
  H      370.792    -945.157     302.409
  H      369.496    -945.221     303.611
  P      365.268    -943.875     302.213
  C      366.438    -941.945     303.536
  O      365.835    -943.225     303.561
  O      364.741    -945.315     302.669
  O      364.253    -943.074     301.460
  H      365.460    -945.918     302.943
  H      365.967    -941.290     302.801
  H      367.495    -942.052     303.306
  H      366.338    -941.489     304.529
  H      370.597    -949.681     305.779
  H      371.283    -950.217     304.263
  H      369.636    -949.636     304.320

 3  4  5  6  7  8  9  10  11  12  13  23  28  29  30  31  32 0
 6-311+G(2d,p)
 ****
 33  34 0
 6-311+G(2d,p)
 ****
 1  2  14  15  16  17  18  19  20  21  22  24  25  26 0
 3-21G
 ****
 27  35  36  37  38  39  40  41  42  43  44  45 0
 3-21G
 ****


