%nproc=1
%NoSave
%Mem=1900MB
#P OB98/GEN NMR

erre ene a

0 1
  C      105.923     -64.473     -51.528
  O      104.760     -63.679     -51.631
  H      105.737     -65.430     -52.023
  H      106.166     -64.663     -50.480
  H      106.766     -63.982     -52.023
  P      104.744     -62.241     -50.924
  C      104.508     -62.939     -48.450
  O      105.376     -62.438     -49.462
  C      105.034     -62.550     -47.064
  O      106.346     -63.146     -46.907
  C      105.171     -61.030     -46.893
  O      104.507     -60.536     -45.732
  C      106.673     -60.799     -46.999
  O      107.142     -59.646     -46.332
  C      107.263     -62.119     -46.487
  N      108.609     -62.396     -46.982
  C      109.628     -62.492     -46.039
  O      109.481     -62.386     -44.824
  N      110.880     -62.735     -46.545
  C      111.202     -62.879     -47.860
  O      112.341     -63.102     -48.252
  C      110.087     -62.744     -48.809
  C      108.861     -62.511     -48.334
  O      103.437     -61.524     -50.947
  O      105.879     -61.417     -51.697
  H      106.873     -59.716     -45.393
  H      105.462     -60.805     -52.332
  H      111.624     -62.818     -45.870
  H      110.309     -62.843     -49.863
  H      108.014     -62.409     -49.007
  H      107.303     -62.123     -45.398
  H      106.927     -60.682     -48.060
  H      104.672     -60.499     -47.712
  H      104.379     -62.987     -46.303
  H      104.469     -64.028     -48.550
  H      103.502     -62.531     -48.593
  P      103.319     -59.470     -45.749
  C      104.430     -57.252     -44.899
  O      103.953     -58.022     -45.993
  O      102.324     -59.596     -44.645
  O      102.555     -59.790     -47.133
  H      101.609     -59.592     -46.981
  H      104.815     -56.321     -45.259
  H      105.208     -57.789     -44.397
  H      103.627     -57.066     -44.217

 6  7  8  9  10  11  12  13  14  15  16  26  31  32  33  34  35 0
 6-311+G(2d,p)
 ****
 36  37 0
 6-311+G(2d,p)
 ****
 1  2  3  4  5  17  18  19  20  21  22  23  24  25 0
 3-21G
 ****
 27  28  29  30  38  39  40  41  42  43  44  45 0
 3-21G
 ****


