%nproc=1
%NoSave
%Mem=1900MB
#P OB98/GEN NMR

erre ene a

0 1
  C      758.904    -676.132    -894.240
  O      759.364    -675.707    -892.970
  H      758.627    -677.178    -894.170
  H      759.714    -676.029    -894.960
  H      758.039    -675.552    -894.560
  P      759.497    -674.136    -892.690
  C      761.545    -673.886    -894.260
  O      760.213    -673.479    -893.980
  C      762.040    -673.267    -895.570
  O      761.931    -671.820    -895.500
  C      763.538    -673.602    -895.780
  O      763.889    -673.635    -897.160
  C      764.237    -672.407    -895.130
  O      765.564    -672.215    -895.600
  C      763.277    -671.279    -895.480
  N      765.862    -667.174    -893.860
  C      766.241    -668.126    -894.780
  N      767.462    -668.003    -895.330
  N      765.463    -669.153    -895.120
  C      764.297    -669.198    -894.440
  C      763.834    -668.320    -893.480
  C      764.661    -667.186    -893.150
  O      764.393    -666.317    -892.320
  N      762.595    -668.714    -893.000
  C      762.339    -669.820    -893.640
  N      763.336    -670.154    -894.550
  O      760.656    -674.036    -891.580
  O      758.248    -673.431    -892.240
  H      766.031    -673.057    -895.520
  H      760.565    -673.225    -891.060
  H      766.480    -666.419    -893.640
  H      761.432    -670.422    -893.520
  H      763.486    -670.889    -896.480
  H      764.298    -672.602    -894.050
  H      768.145    -667.346    -894.970
  H      763.809    -674.534    -895.320
  H      767.871    -668.833    -895.770
  H      761.418    -673.587    -896.410
  H      761.537    -674.989    -894.340
  H      762.204    -673.628    -893.430
  P      763.754    -675.048    -897.910
  C      766.280    -675.819    -897.860
  O      764.952    -675.988    -897.380
  O      764.168    -674.704    -899.420
  O      762.395    -675.664    -897.820
  H      763.386    -674.689    -900.000
  H      766.923    -676.534    -897.390
  H      766.619    -674.830    -897.631
  H      766.298    -675.966    -898.920

 6  7  8  9  10  11  12  13  14  15  26  29  33  34 0
 6-311+G(2d,p)
 ****
 36  38  39  40  41 0
 6-311+G(2d,p)
 ****
 1  2  3  4  5  16  17  18  19  20  21  22  23  24  25 0
 3-21G
 ****
 27  28  30  31  32  35  37  42  43  44  45  46  47 0
 3-21G
 ****
 48  49 0
 3-21G
 ****


