%nproc=1
%NoSave
%Mem=1900MB
#P OB98/GEN NMR

erre ene a

0 1
  C     -388.738      62.825     -66.567
  O     -388.929      63.020     -67.955
  H     -388.002      62.035     -66.407
  H     -388.353      63.754     -66.131
  H     -389.678      62.567     -66.079
  P     -389.760      61.898     -68.744
  C     -391.290      63.484     -70.118
  O     -390.207      62.564     -70.143
  C     -391.126      64.532     -71.221
  O     -389.997      65.387     -70.883
  C     -390.868      63.941     -72.619
  O     -391.565      64.734     -73.586
  C     -389.369      64.141     -72.815
  O     -388.993      64.213     -74.185
  C     -389.148      65.443     -72.043
  N     -384.495      66.399     -73.884
  C     -385.725      66.577     -74.401
  N     -386.923      66.347     -73.822
  C     -386.759      65.941     -72.551
  C     -385.572      65.713     -71.871
  C     -384.387      65.947     -72.607
  N     -383.131      65.696     -72.104
  N     -385.822      65.253     -70.596
  C     -387.135      65.177     -70.512
  N     -387.746      65.583     -71.668
  O     -391.125      61.830     -67.908
  O     -389.103      60.562     -68.852
  H     -388.029      64.348     -74.241
  H     -391.026      61.194     -67.173
  H     -385.754      66.951     -75.429
  H     -387.690      64.810     -69.655
  H     -389.421      66.332     -72.632
  H     -388.826      63.309     -72.346
  H     -391.160      62.889     -72.722
  H     -392.019      65.169     -71.234
  H     -391.306      63.996     -69.147
  H     -382.351      65.785     -72.732
  H     -383.042      65.259     -71.200
  H     -392.232      62.940     -70.251
  P     -393.044      64.262     -73.992
  C     -394.203      66.593     -73.845
  O     -393.806      65.501     -74.668
  O     -393.782      64.102     -72.575
  O     -393.083      62.995     -74.782
  H     -394.440      63.385     -72.620
  H     -394.695      67.331     -74.444
  H     -393.339      67.025     -73.385
  H     -394.873      66.244     -73.088

 6  7  8  9  10  11  12  13  14  15  25  28  32  33  34  35 0
 6-311+G(2d,p)
 ****
 36  39  40 0
 6-311+G(2d,p)
 ****
 1  2  3  4  5  16  17  18  19  20  21  22  23  24 0
 3-21G
 ****
 26  27  29  30  31  37  38  41  42  43  44  45  46  47 0
 3-21G
 ****
 48 0
 3-21G
 ****


