%nproc=1
%NoSave
%Mem=1900MB
#P OB98/GEN NMR

erre ene a

0 1
  C       30.033    -253.508      64.278
  O       29.914    -252.291      64.991
  H       31.068    -253.858      64.357
  H       29.800    -253.351      63.222
  H       29.374    -254.272      64.700
  P       28.467    -251.610      65.120
  C       26.786    -250.498      63.521
  O       28.082    -251.068      63.657
  C       26.887    -249.014      63.169
  O       27.247    -248.271      64.364
  C       27.934    -248.706      62.089
  O       27.432    -247.666      61.251
  C       29.118    -248.190      62.887
  O       29.946    -247.314      62.122
  C       28.429    -247.502      64.066
  N       31.900    -244.673      66.413
  C       31.150    -244.409      65.283
  N       31.371    -243.225      64.668
  N       30.260    -245.235      64.796
  C       30.133    -246.375      65.519
  C       30.816    -246.752      66.651
  C       31.809    -245.836      67.173
  O       32.509    -246.019      68.161
  N       30.419    -247.998      67.078
  C       29.502    -248.372      66.204
  N       29.299    -247.426      65.230
  O       28.331    -250.594      66.211
  O       27.473    -252.845      65.329
  H       30.300    -247.835      61.370
  H       27.239    -252.944      66.270
  H       32.578    -244.004      66.740
  H       28.962    -249.312      66.221
  H       28.126    -246.474      63.829
  H       29.732    -249.033      63.227
  H       32.028    -242.533      64.995
  H       28.194    -249.582      61.485
  H       30.815    -242.999      63.849
  H       25.894    -248.661      62.862
  H       26.257    -250.616      64.476
  H       26.233    -251.034      62.741
  P       27.670    -247.768      59.667
  C       29.669    -247.555      58.053
  O       29.253    -247.772      59.397
  O       26.881    -246.813      58.832
  O       27.265    -249.289      59.345
  H       26.917    -249.337      58.432
  H       30.737    -247.580      58.002
  H       29.318    -246.600      57.721
  H       29.264    -248.322      57.426

 6  7  8  9  10  11  12  13  14  15  26  29  33  34 0
 6-311+G(2d,p)
 ****
 36  38  39  40  41 0
 6-311+G(2d,p)
 ****
 1  2  3  4  5  16  17  18  19  20  21  22  23  24  25 0
 3-21G
 ****
 27  28  30  31  32  35  37  42  43  44  45  46  47 0
 3-21G
 ****
 48  49 0
 3-21G
 ****


