%nproc=1
%NoSave
%Mem=1900MB
#P OB98/GEN NMR

erre ene a

0 1
  C      -95.105    -649.320      98.407
  O      -94.513    -649.488      97.118
  P      -93.338    -648.459      96.729
  C      -92.078    -650.211      95.283
  O      -92.704    -648.931      95.334
  C      -91.361    -650.443      93.954
  O      -92.323    -650.898      92.964
  C      -90.664    -649.204      93.369
  O      -89.450    -649.616      92.740
  C      -91.617    -648.751      92.263
  O      -90.960    -647.973      91.279
  C      -92.119    -650.109      91.778
  N      -94.284    -650.882      87.266
  C      -93.020    -651.207      87.705
  N      -92.204    -651.814      86.804
  N      -92.588    -650.977      88.917
  C      -93.515    -650.400      89.717
  C      -94.804    -650.024      89.400
  C      -95.257    -650.259      88.045
  O      -96.340    -649.937      87.577
  N      -95.446    -649.470      90.479
  C      -94.544    -649.489      91.439
  N      -93.355    -650.034      91.023
  O      -92.199    -648.781      97.808
  O      -93.757    -647.024      96.790
  H      -91.652    -647.646      90.671
  H      -91.969    -647.972      98.298
  H      -94.561    -651.068      86.316
  H      -94.691    -649.100      92.443
  H      -91.374    -650.614      91.151
  H      -92.419    -648.160      92.714
  H      -92.496    -652.081      85.882
  H      -90.464    -648.416      94.097
  H      -91.290    -652.108      87.124
  H      -90.637    -651.252      94.097
  H      -92.836    -650.987      95.424
  H      -91.366    -650.282      96.116
  P      -88.281    -650.137      93.722
  C      -87.183    -651.739      91.980
  O      -87.068    -650.559      92.756
  O      -88.845    -651.542      94.250
  O      -87.950    -649.204      94.830
  H      -88.477    -651.748      95.124
  H      -88.201    -652.139      91.978
  H      -86.507    -652.502      92.391
  H      -86.889    -651.512      90.957
  H      -95.867    -650.057      98.548
  H      -95.536    -648.343      98.477
  H      -94.355    -649.433      99.162

 3  4  5  6  7  8  9  10  11  12  23  26  30  31  33  0
 6-311+G(2d,p)
 ****
 35  36  37  38 0
 6-311+G(2d,p)
 ****
 1  2  13  14  15  16  17  18  19  20  21  22  24  25  27  28  29 0
 3-21G
 ****
 32  34  39  40  41  42  43  44  45  46  47  48  49 0
 3-21G
 ****


