%nproc=1
%NoSave
%Mem=1900MB
#P OB98/GEN NMR

erre ene a

0 1
  C       56.622     -59.653     -77.461
  O       56.568     -59.903     -78.855
  P       56.070     -61.345     -79.346
  C       58.465     -62.347     -79.331
  O       57.135     -62.435     -78.841
  C       59.383     -63.322     -78.591
  O       59.115     -63.255     -77.165
  C       59.201     -64.781     -79.020
  O       60.464     -65.459     -78.946
  C       58.313     -65.359     -77.938
  O       58.453     -66.777     -77.846
  C       58.816     -64.592     -76.715
  N       57.996     -65.807     -71.878
  C       59.187     -65.727     -72.572
  N       60.299     -66.107     -71.907
  N       59.280     -65.307     -73.807
  C       58.085     -64.966     -74.348
  C       56.842     -64.988     -73.756
  C       56.752     -65.466     -72.394
  O       55.727     -65.588     -71.733
  N       55.871     -64.535     -74.611
  C       56.513     -64.280     -75.734
  N       57.852     -64.561     -75.635
  O       56.314     -61.287     -80.928
  O       54.644     -61.650     -79.037
  H       57.730     -67.095     -77.272
  H       55.462     -61.179     -81.391
  H       57.975     -66.148     -70.931
  H       56.058     -63.920     -76.647
  H       59.745     -65.024     -76.324
  H       57.263     -65.132     -78.152
  H       60.285     -66.503     -70.979
  H       58.779     -64.910     -80.022
  H       61.178     -66.101     -72.407
  H       60.422     -63.003     -78.737
  H       58.832     -61.330     -79.184
  H       58.475     -62.562     -80.405
  P       60.763     -66.520     -80.115
  C       59.676     -68.429     -78.719
  O       59.691     -67.692     -79.925
  O       62.144     -67.187     -79.662
  O       60.840     -65.920     -81.479
  H       62.623     -67.532     -80.438
  H       58.720     -68.265     -78.214
  H       60.488     -68.137     -78.045
  H       59.777     -69.492     -78.951
  H       56.971     -58.656     -77.291
  H       57.292     -60.349     -77.000
  H       55.645     -59.766     -77.040

 3  4  5  6  7  8  9  10  11  12  23  26  30  31 0
 6-311+G(2d,p)
 ****
 33  35  36  37  38 0
 6-311+G(2d,p)
 ****
 1  2  13  14  15  16  17  18  19  20  21  22  24  25 0
 3-21G
 ****
 27  28  29  32  34  39  40  41  42  43  44  45  46  47  48  49 0
 3-21G
 ****


