%nproc=1
%NoSave
%Mem=1900MB
#P OB98/GEN NMR

erre ene a

0 1
  C     -252.081    -108.820     -42.236
  O     -252.756    -109.095     -43.447
  H     -252.468    -107.886     -41.821
  H     -251.009    -108.707     -42.414
  H     -252.257    -109.625     -41.518
  P     -252.264    -110.375     -44.277
  C     -251.347    -108.862     -46.181
  O     -251.073    -109.883     -45.229
  C     -250.159    -107.907     -46.262
  O     -249.748    -107.522     -44.929
  C     -248.919    -108.512     -46.906
  O     -248.994    -108.539     -48.321
  C     -247.843    -107.568     -46.402
  O     -247.736    -106.396     -47.224
  C     -248.341    -107.213     -44.988
  N     -247.581    -107.913     -43.956
  C     -246.356    -107.342     -43.619
  O     -245.921    -106.316     -44.141
  N     -245.623    -108.016     -42.683
  C     -245.963    -109.202     -42.102
  O     -245.231    -109.783     -41.309
  C     -247.259    -109.767     -42.507
  C     -247.998    -109.107     -43.405
  O     -253.475    -110.642     -45.288
  O     -251.950    -111.578     -43.451
  H     -253.976    -111.428     -45.002
  H     -248.577    -105.910     -47.110
  H     -244.732    -107.619     -42.423
  H     -247.560    -110.707     -42.066
  H     -248.952    -109.508     -43.730
  H     -248.249    -106.136     -44.809
  H     -246.869    -108.051     -46.402
  H     -248.732    -109.515     -46.499
  H     -250.471    -107.005     -46.803
  H     -252.231    -108.298     -45.872
  H     -251.546    -109.324     -47.152
  P     -249.113    -109.972     -49.036
  C     -246.656    -109.742     -49.951
  O     -247.609    -110.495     -49.217
  O     -249.573    -109.530     -50.503
  O     -250.045    -110.902     -48.333
  H     -249.264    -108.633     -50.725
  H     -245.719    -110.259     -49.955
  H     -246.532    -108.782     -49.495
  H     -246.998    -109.617     -50.957

 6  7  8  9  10  11  12  13  14  15  16  27  31  32  33  34  35 0
 6-311+G(2d,p)
 ****
 36  37 0
 6-311+G(2d,p)
 ****
 1  2  3  4  5  17  18  19  20  21  22  23  24  25 0
 3-21G
 ****
 26  28  29  30  38  39  40  41  42  43  44  45 0
 3-21G
 ****


