%nproc=1
%NoSave
%Mem=1900MB
#P OB98/GEN NMR

erre ene a

0 1
  C       85.097    -898.170    -891.350
  O       84.423    -896.890    -891.540
  P       85.297    -895.590    -891.850
  C       84.424    -895.270    -894.310
  O       85.571    -895.460    -893.470
  C       84.873    -895.040    -895.770
  O       85.449    -893.680    -895.860
  C       85.943    -896.030    -896.330
  O       85.655    -896.130    -897.730
  C       87.245    -895.240    -896.090
  O       88.300    -895.750    -896.920
  C       86.809    -893.830    -896.440
  N       87.651    -892.750    -895.910
  C       88.830    -892.470    -896.640
  O       89.220    -893.130    -897.670
  N       89.587    -891.470    -896.120
  C       89.401    -890.790    -894.980
  O       90.130    -889.930    -894.570
  C       88.140    -891.140    -894.250
  C       87.404    -892.120    -894.730
  O       86.784    -896.060    -891.370
  O       84.879    -894.320    -891.170
  H       89.144    -895.250    -896.620
  H       87.204    -895.340    -890.830
  H       90.445    -891.290    -896.670
  H       87.903    -890.600    -893.320
  H       86.481    -892.350    -894.190
  H       86.680    -893.720    -897.540
  H       87.537    -895.360    -895.020
  H       85.900    -896.970    -895.790
  H       83.928    -895.020    -896.410
  H       83.871    -894.440    -893.940
  H       83.773    -896.190    -894.260
  P       86.062    -897.580    -898.490
  C       83.920    -899.020    -898.020
  O       85.253    -898.710    -897.700
  O       87.588    -897.760    -897.960
  O       85.917    -897.500    -900.000
  H       87.695    -897.550    -897.010
  H       83.767    -899.020    -899.170
  H       83.253    -898.290    -897.590
  H       83.707    -900.000    -897.710
  H       84.370    -898.930    -891.153
  H       85.772    -898.098    -890.523
  H       85.643    -898.420    -892.235

 3  4  5  6  7  8  9  10  11  12  13  23  28  29  30  31  32 0
 6-311+G(2d,p)
 ****
 33  34 0
 6-311+G(2d,p)
 ****
 1  2  14  15  16  17  18  19  20  21  22  24  25  26 0
 3-21G
 ****
 27  35  36  37  38  39  40  41  42  43  44  45 0
 3-21G
 ****


