%nproc=1
%NoSave
%Mem=1900MB
#P OB98/GEN NMR

erre ene a

0 1
  C     -239.121     161.966       2.229
  O     -240.124     162.180       3.201
  H     -238.627     161.004       2.402
  H     -239.585     161.949       1.237
  H     -238.384     162.776       2.260
  P     -239.635     162.219       4.731
  C     -239.497     164.803       4.611
  O     -240.018     163.673       5.302
  C     -240.156     166.082       5.128
  O     -241.596     165.941       4.975
  C     -239.855     166.390       6.605
  O     -239.414     167.747       6.757
  C     -241.200     166.237       7.297
  O     -241.375     167.150       8.376
  C     -242.187     166.493       6.164
  N     -246.263     166.615       9.227
  C     -245.324     167.549       8.953
  N     -244.320     167.488       8.054
  C     -244.359     166.327       7.375
  C     -245.271     165.295       7.529
  C     -246.250     165.461       8.522
  N     -247.174     164.490       8.840
  N     -244.987     164.256       6.654
  C     -243.899     164.641       6.017
  N     -243.472     165.877       6.428
  O     -238.037     162.270       4.602
  O     -240.082     161.060       5.553
  H     -241.318     168.050       8.008
  H     -237.662     161.478       5.032
  H     -245.382     168.464       9.540
  H     -243.353     164.049       5.288
  H     -242.349     167.565       5.992
  H     -241.288     165.215       7.684
  H     -239.107     165.717       7.034
  H     -239.845     166.920       4.490
  H     -239.702     164.704       3.538
  H     -247.762     164.644       9.640
  H     -247.096     163.586       8.394
  H     -238.414     164.845       4.759
  P     -237.884     167.948       7.227
  C     -236.521     167.543       5.051
  O     -237.047     168.497       5.972
  O     -237.364     166.447       7.421
  O     -237.747     168.741       8.484
  H     -237.026     166.325       8.330
  H     -235.991     168.052       4.273
  H     -237.324     166.978       4.625
  H     -235.853     166.883       5.564

 6  7  8  9  10  11  12  13  14  15  25  28  32  33  34  35 0
 6-311+G(2d,p)
 ****
 36  39  40 0
 6-311+G(2d,p)
 ****
 1  2  3  4  5  16  17  18  19  20  21  22  23  24 0
 3-21G
 ****
 26  27  29  30  31  37  38  41  42  43  44  45  46  47  48 0
 3-21G
 ****


