%nproc=1
%NoSave
%Mem=1900MB
#P OB98/GEN NMR

erre ene a

0 1
  C      298.631     -25.914    -332.071
  O      299.467     -24.849    -331.659
  H      297.727     -25.499    -332.522
  H      298.344     -26.525    -331.206
  H      299.149     -26.533    -332.809
  P      300.832     -25.248    -330.913
  C      302.407     -23.880    -332.430
  O      301.801     -23.986    -331.145
  C      303.129     -22.540    -332.569
  O      302.134     -21.503    -332.791
  C      303.941     -22.146    -331.329
  O      305.128     -21.459    -331.740
  C      303.027     -21.167    -330.610
  O      303.739     -20.294    -329.739
  C      302.339     -20.480    -331.792
  N      300.253     -16.605    -329.231
  C      301.529     -16.862    -329.607
  N      301.996     -17.912    -330.307
  C      300.983     -18.723    -330.681
  C      299.638     -18.590    -330.379
  C      299.282     -17.471    -329.598
  N      297.995     -17.216    -329.185
  N      298.916     -19.648    -330.902
  C      299.811     -20.398    -331.521
  N      301.074     -19.888    -331.397
  O      301.408     -26.570    -331.289
  O      300.424     -25.089    -329.371
  H      303.086     -19.799    -329.196
  H      299.946     -24.250    -329.214
  H      302.274     -16.133    -329.285
  H      299.594     -21.323    -332.051
  H      302.957     -19.682    -332.230
  H      302.295     -21.722    -330.007
  H      304.205     -22.993    -330.702
  H      303.762     -22.568    -333.464
  H      301.642     -23.970    -333.216
  H      297.831     -16.387    -328.633
  H      297.246     -17.847    -329.457
  H      303.118     -24.711    -332.537
  P      306.434     -22.309    -332.115
  C      307.158     -21.017    -334.219
  O      307.475     -21.354    -332.878
  O      306.177     -23.625    -332.773
  O      307.136     -22.511    -330.682
  H      307.473     -23.434    -330.619
  H      307.921     -20.381    -334.617
  H      306.218     -20.506    -334.246
  H      307.095     -21.910    -334.806

 6  7  8  9  10  11  12  13  14  15  25  28  32  33  34  35 0
 6-311+G(2d,p)
 ****
 36  39  40 0
 6-311+G(2d,p)
 ****
 1  2  3  4  5  16  17  18  19  20  21  22  23  24 0
 3-21G
 ****
 26  27  29  30  31  37  38  41  42  43  44  45  46  47 0
 3-21G
 ****
 48 0
 3-21G
 ****


