%nproc=1
%NoSave
%Mem=1900MB
#P OB98/GEN NMR

erre ene a

0 1
  C     -899.240    -119.999     143.526
  O     -897.820    -120.042     143.640
  H     -899.580    -120.974     143.174
  H     -899.510    -119.234     142.796
  H     -899.700    -119.789     144.491
  P     -897.070    -118.844     144.402
  C     -896.810    -116.931     142.683
  O     -897.600    -117.484     143.731
  C     -897.420    -115.620     142.175
  O     -897.360    -114.630     143.259
  C     -896.680    -115.011     140.963
  O     -897.670    -114.322     140.164
  C     -895.770    -114.029     141.647
  O     -895.200    -113.114     140.729
  C     -896.710    -113.460     142.715
  N     -896.020    -112.709     143.760
  C     -895.990    -111.332     143.635
  O     -896.520    -110.717     142.704
  N     -895.310    -110.654     144.613
  C     -894.660    -111.224     145.664
  O     -894.090    -110.567     146.540
  C     -894.700    -112.692     145.736
  C     -895.370    -113.359     144.801
  O     -895.590    -118.972     144.502
  O     -897.750    -118.828     145.854
  H     -897.200    -119.309     146.488
  H     -895.890    -112.757     140.134
  H     -895.290    -109.650     144.537
  H     -894.170    -113.186     146.557
  H     -895.430    -114.444     144.808
  H     -897.480    -112.839     142.270
  H     -894.920    -114.556     142.106
  H     -896.190    -115.761     140.340
  H     -898.480    -115.779     141.966
  H     -896.770    -117.661     141.861
  H     -895.790    -116.746     143.061
  P     -898.510    -115.035     139.009
  C     -897.020    -114.651     136.940
  O     -897.530    -115.594     137.878
  O     -899.610    -114.192     138.455
  O     -899.120    -116.376     139.680
  H     -900.000    -116.530     139.314
  H     -896.382    -115.152     136.242
  H     -896.462    -113.899     137.458
  H     -897.833    -114.194     136.416

 6  7  8  9  10  11  12  13  14  15  16  27  31  32  33  34  35 0
 6-311+G(2d,p)
 ****
 36  37 0
 6-311+G(2d,p)
 ****
 1  2  3  4  5  17  18  19  20  21  22  23  24  25 0
 3-21G
 ****
 26  28  29  30  38  39  40  41  42  43  44  45 0
 3-21G
 ****


