%nproc=1
%NoSave
%Mem=1900MB
#P OB98/GEN NMR

erre ene a

0 1
  C     -215.733     191.898     398.872
  O     -216.778     191.098     399.432
  P     -216.925     189.583     398.913
  C     -219.380     188.782     398.571
  O     -218.308     188.993     399.479
  C     -220.505     188.002     399.250
  O     -220.090     186.661     399.597
  C     -220.994     188.635     400.545
  O     -221.937     189.668     400.302
  C     -221.687     187.452     401.209
  O     -222.995     187.274     400.643
  C     -220.768     186.285     400.824
  N     -220.123     184.963     405.665
  C     -221.285     185.177     404.948
  N     -222.446     185.015     405.614
  N     -221.307     185.532     403.695
  C     -220.071     185.642     403.141
  C     -218.849     185.452     403.749
  C     -218.844     185.085     405.151
  O     -217.846     184.888     405.838
  N     -217.813     185.664     402.875
  C     -218.410     185.960     401.734
  N     -219.783     185.975     401.846
  O     -215.828     188.802     399.782
  O     -216.697     189.410     397.447
  H     -222.867     187.050     399.702
  H     -215.512     188.023     399.287
  H     -220.164     184.704     406.635
  H     -217.900     186.168     400.801
  H     -221.325     185.362     400.628
  H     -221.823     187.601     402.283
  H     -222.508     184.696     406.571
  H     -220.154     188.971     401.163
  H     -223.310     185.141     405.098
  H     -221.353     187.935     398.543
  H     -219.030     188.235     397.685
  H     -219.730     189.753     398.194
  P     -221.478     191.180     400.568
  C     -223.881     191.907     401.236
  O     -222.788     192.088     400.369
  O     -220.577     191.506     399.287
  O     -220.727     191.396     401.844
  H     -219.868     192.140     399.526
  H     -224.607     192.704     401.055
  H     -223.555     191.957     402.279
  H     -224.364     190.946     401.041
  H     -215.758     192.874     399.309
  H     -215.873     191.978     397.814
  H     -214.787     191.441     399.073

 3  4  5  6  7  8  9  10  11  12  23  26  30  31 0
 6-311+G(2d,p)
 ****
 33  35  36  37  38 0
 6-311+G(2d,p)
 ****
 1  2  13  14  15  16  17  18  19  20  21  22  24  25 0
 3-21G
 ****
 27  28  29  32  34  39  40  41  42  43  44  45  46  47  48  49 0
 3-21G
 ****


