%nproc=1
%NoSave
%Mem=1900MB
#P OB98/GEN NMR

erre ene a

0 1
  C     -217.141     309.215    -350.922
  O     -216.533     307.935    -350.900
  H     -216.414     309.954    -350.569
  H     -218.012     309.245    -350.263
  H     -217.440     309.476    -351.941
  P     -217.444     306.659    -351.230
  C     -219.510     305.588    -350.094
  O     -218.400     306.474    -349.958
  C     -220.481     305.792    -348.933
  O     -220.984     307.148    -348.935
  C     -221.716     304.899    -349.025
  O     -221.400     303.570    -348.648
  C     -222.668     305.634    -348.104
  O     -222.398     305.342    -346.731
  C     -222.336     307.109    -348.432
  N     -223.268     307.695    -349.397
  C     -224.569     307.912    -348.939
  O     -224.882     307.621    -347.782
  N     -225.495     308.437    -349.811
  C     -225.143     308.728    -351.027
  N     -226.104     309.243    -351.839
  C     -223.777     308.528    -351.545
  C     -222.901     308.010    -350.687
  O     -216.732     305.412    -351.652
  O     -218.445     307.193    -352.364
  H     -222.511     304.377    -346.631
  H     -218.063     307.052    -353.248
  H     -223.526     308.794    -352.565
  H     -221.874     307.832    -350.986
  H     -222.358     307.721    -347.525
  H     -223.704     305.362    -348.308
  H     -222.129     304.926    -350.041
  H     -219.942     305.624    -347.995
  H     -227.033     309.355    -351.442
  H     -219.110     304.572    -350.079
  H     -225.928     309.589    -352.772
  H     -220.020     305.753    -351.050
  P     -222.415     302.372    -348.975
  C     -224.720     301.642    -348.065
  O     -223.690     302.620    -348.022
  O     -221.828     301.004    -348.914
  O     -222.983     302.755    -350.423
  H     -222.312     302.593    -351.131
  H     -225.504     301.920    -347.392
  H     -224.322     300.692    -347.776
  H     -225.109     301.578    -349.060

 6  7  8  9  10  11  12  13  14  15  16  26  30  31  32  33  35 0
 6-311+G(2d,p)
 ****
 37  38 0
 6-311+G(2d,p)
 ****
 1  2  3  4  5  17  18  19  20  21  22  23  24  25 0
 3-21G
 ****
 27  28  29  34  36  39  40  41  42  43  44  45  46 0
 3-21G
 ****


