%nproc=1
%NoSave
%Mem=1900MB
#P OB98/GEN NMR

erre ene a

0 1
  C     -196.019    -292.636    -408.025
  O     -195.669    -292.642    -409.396
  P     -194.871    -293.921    -409.960
  C     -195.305    -293.391    -412.505
  O     -194.380    -293.517    -411.433
  C     -194.624    -292.743    -413.713
  O     -193.321    -293.315    -413.907
  C     -195.363    -292.941    -415.035
  O     -196.488    -292.080    -415.149
  C     -194.251    -292.668    -416.027
  O     -194.068    -291.247    -416.210
  C     -193.023    -293.278    -415.328
  N     -192.663    -294.605    -415.825
  C     -191.609    -294.647    -416.732
  O     -190.998    -293.644    -417.109
  N     -191.288    -295.888    -417.213
  C     -191.946    -297.052    -416.940
  O     -191.645    -298.135    -417.427
  C     -193.070    -296.935    -416.003
  C     -193.375    -295.741    -415.498
  O     -196.083    -294.937    -410.200
  O     -193.815    -294.412    -409.031
  H     -196.919    -294.469    -410.376
  H     -194.889    -290.919    -416.621
  H     -190.514    -295.945    -417.863
  H     -193.622    -297.842    -415.757
  H     -194.208    -295.631    -414.804
  H     -192.158    -292.615    -415.431
  H     -194.459    -293.093    -417.029
  H     -195.696    -293.982    -415.125
  H     -194.496    -291.668    -413.504
  H     -196.148    -292.762    -412.183
  H     -195.685    -294.386    -412.759
  P     -197.899    -292.787    -415.453
  C     -198.962    -290.601    -414.463
  O     -198.997    -291.618    -415.459
  O     -198.162    -293.574    -414.084
  O     -197.888    -293.656    -416.674
  H     -197.931    -293.047    -413.295
  H     -199.519    -289.743    -414.829
  H     -197.934    -290.293    -414.249
  H     -199.427    -290.978    -413.545
  H     -196.541    -291.731    -407.794
  H     -195.132    -292.698    -407.430
  H     -196.649    -293.475    -407.814

 3  4  5  6  7  8  9  10  11  12  13  24  28  29  30  31  32 0
 6-311+G(2d,p)
 ****
 33  34 0
 6-311+G(2d,p)
 ****
 1  2  14  15  16  17  18  19  20  21  22  23  25  26  27 0
 3-21G
 ****
 35  36  37  38  39  40  41  42  43  44  45 0
 3-21G
 ****


