%nproc=1
%NoSave
%Mem=1900MB
#P OB98/GEN NMR

erre ene a

0 1
  C       35.276    -699.287    -526.372
  O       36.580    -699.009    -526.844
  H       34.843    -698.366    -525.984
  H       35.315    -700.022    -525.564
  H       34.644    -699.661    -527.183
  P       37.402    -700.170    -527.585
  C       36.196    -700.083    -529.861
  O       36.405    -700.820    -528.662
  C       36.872    -700.795    -531.031
  O       38.288    -700.960    -530.762
  C       36.334    -702.193    -531.304
  O       35.080    -702.132    -531.954
  C       37.471    -702.776    -532.134
  O       37.400    -702.313    -533.491
  C       38.709    -702.172    -531.432
  N       39.328    -703.105    -530.482
  C       39.999    -704.190    -531.039
  O       40.075    -704.385    -532.247
  N       40.533    -705.077    -530.141
  C       40.395    -705.031    -528.787
  O       40.701    -705.958    -528.042
  C       39.745    -703.826    -528.259
  C       39.239    -702.940    -529.111
  O       38.095    -701.144    -526.695
  O       38.442    -699.366    -528.501
  H       39.314    -699.368    -528.072
  H       36.569    -702.674    -533.867
  H       40.978    -705.890    -530.535
  H       39.673    -703.721    -527.182
  H       38.729    -702.055    -528.742
  H       39.466    -701.885    -532.162
  H       37.450    -703.863    -532.163
  H       36.266    -702.760    -530.360
  H       36.775    -700.159    -531.921
  H       36.623    -699.087    -529.739
  H       35.122    -699.989    -530.042
  P       34.213    -703.455    -532.212
  C       32.893    -703.175    -530.027
  O       33.744    -704.023    -530.788
  O       34.852    -704.464    -533.103
  O       32.850    -702.909    -532.844
  H       32.679    -703.383    -533.690
  H       32.646    -703.654    -529.103
  H       31.997    -702.981    -530.579
  H       33.396    -702.252    -529.827

 6  7  8  9  10  11  12  13  14  15  16  27  31  32  33  34  35 0
 6-311+G(2d,p)
 ****
 36  37 0
 6-311+G(2d,p)
 ****
 1  2  3  4  5  17  18  19  20  21  22  23  24  25 0
 3-21G
 ****
 26  28  29  30  38  39  40  41  42  43  44  45 0
 3-21G
 ****


