%nproc=1
%NoSave
%Mem=1900MB
#P OB98/GEN NMR

erre ene a

0 1
  C      334.035    -448.771    -476.052
  O      335.281    -449.038    -476.660
  H      333.834    -447.700    -476.126
  H      334.059    -449.047    -474.995
  H      333.235    -449.312    -476.564
  P      335.815    -450.551    -476.680
  C      335.131    -451.287    -479.071
  O      334.812    -451.304    -477.689
  C      334.659    -452.573    -479.741
  O      335.412    -453.717    -479.281
  C      333.203    -452.940    -479.466
  O      332.267    -452.130    -480.158
  C      333.198    -454.377    -479.956
  O      333.184    -454.395    -481.395
  C      334.549    -454.882    -479.401
  N      334.412    -455.556    -478.112
  C      334.015    -456.896    -478.144
  O      333.788    -457.460    -479.215
  N      333.846    -457.570    -476.953
  C      334.035    -456.947    -475.834
  N      333.847    -457.657    -474.684
  C      334.441    -455.531    -475.752
  C      334.608    -454.901    -476.912
  O      335.994    -451.202    -475.346
  O      337.159    -450.492    -477.547
  H      332.423    -453.855    -481.678
  H      337.537    -451.407    -477.582
  H      334.554    -455.051    -474.790
  H      334.898    -453.858    -476.936
  H      335.031    -455.568    -480.111
  H      332.333    -454.945    -479.620
  H      332.998    -452.941    -478.388
  H      334.852    -452.474    -480.817
  H      333.572    -458.628    -474.774
  H      336.219    -451.174    -479.167
  H      333.900    -457.233    -473.769
  H      334.641    -450.442    -479.559
  P      330.723    -452.282    -479.742
  C      330.723    -449.914    -478.639
  O      330.497    -451.307    -478.491
  O      330.664    -453.751    -479.106
  O      329.743    -452.095    -480.852
  H      330.328    -454.395    -479.763
  H      330.525    -449.420    -477.711
  H      330.073    -449.526    -479.395
  H      331.741    -449.746    -478.922

 6  7  8  9  10  11  12  13  14  15  16  26  30  31  32  33  35 0
 6-311+G(2d,p)
 ****
 37  38 0
 6-311+G(2d,p)
 ****
 1  2  3  4  5  17  18  19  20  21  22  23  24  25 0
 3-21G
 ****
 27  28  29  34  36  39  40  41  42  43  44  45  46 0
 3-21G
 ****


