%nproc=1
%NoSave
%Mem=1900MB
#P OB98/GEN NMR

erre ene a

0 1
  C      561.915     -25.138     426.137
  O      561.665     -25.979     427.263
  P      560.239     -25.905     427.989
  C      559.845     -28.392     427.437
  O      559.305     -27.078     427.410
  C      558.894     -29.385     426.759
  O      557.594     -29.383     427.417
  C      558.647     -29.050     425.279
  O      558.452     -30.249     424.516
  C      557.327     -28.304     425.318
  O      556.681     -28.313     424.047
  C      556.600     -29.074     426.418
  N      551.993     -26.999     425.583
  C      552.789     -27.761     424.801
  N      553.992     -28.296     425.096
  C      554.351     -27.990     426.357
  C      553.638     -27.232     427.273
  C      552.405     -26.717     426.840
  N      551.603     -25.919     427.627
  N      554.328     -27.127     428.465
  C      555.457     -27.764     428.254
  N      555.507     -28.333     427.007
  O      559.604     -24.558     428.029
  O      560.566     -26.429     429.468
  H      556.321     -29.208     423.907
  H      560.087     -25.874     430.116
  H      552.413     -27.961     423.802
  H      556.273     -27.839     428.957
  H      556.198     -30.025     426.050
  H      557.498     -27.262     425.610
  H      559.443     -28.459     424.811
  H      559.302     -30.395     426.860
  H      560.022     -28.694     428.470
  H      550.794     -25.500     427.193
  H      551.968     -25.580     428.507
  H      560.828     -28.385     426.953
  P      559.223     -30.319     423.103
  C      561.140     -31.861     423.982
  O      560.756     -30.611     423.456
  O      558.962     -29.141     422.224
  O      558.683     -31.701     422.500
  H      558.743     -32.459     423.107
  H      562.232     -31.900     424.031
  H      560.792     -32.676     423.346
  H      560.739     -31.982     424.992
  H      562.907     -25.312     425.775
  H      561.816     -24.113     426.428
  H      561.209     -25.359     425.363

 3  4  5  6  7  8  9  10  11  12  22  25  29  30  31  32 0
 6-311+G(2d,p)
 ****
 33  36  37 0
 6-311+G(2d,p)
 ****
 1  2  13  14  15  16  17  18  19  20  21  23  24  26 0
 3-21G
 ****
 27  28  34  35  38  39  40  41  42  43  44  45  46  47  48 0
 3-21G
 ****


