%nproc=1
%NoSave
%Mem=1900MB
#P OB98/GEN NMR

erre ene a

0 1
  C      163.337      -5.195     -41.796
  O      162.935      -4.648     -43.055
  P      162.870      -5.647     -44.308
  C      161.081      -7.141     -45.467
  O      161.386      -6.241     -44.408
  C      159.766      -7.867     -45.179
  O      159.828      -8.583     -43.932
  C      158.582      -6.926     -45.038
  O      158.132      -6.498     -46.308
  C      157.576      -7.791     -44.288
  O      156.740      -8.536     -45.189
  C      158.477      -8.739     -43.465
  N      158.381      -8.503     -42.034
  C      157.548      -9.374     -41.325
  O      156.929     -10.261     -41.916
  N      157.417      -9.199     -39.970
  C      158.042      -8.226     -39.383
  N      157.870      -8.100     -38.041
  C      158.909      -7.270     -40.100
  C      159.031      -7.463     -41.412
  O      163.739      -6.900     -43.823
  O      163.405      -5.064     -45.575
  H      157.335      -9.175     -45.633
  H      164.197      -7.307     -44.580
  H      159.404      -6.470     -39.569
  H      159.648      -6.809     -42.019
  H      158.201      -9.785     -43.652
  H      156.909      -7.183     -43.670
  H      158.860      -6.063     -44.420
  H      159.580      -8.585     -45.990
  H      157.266      -8.771     -37.582
  H      161.888      -7.866     -45.589
  H      158.302      -7.376     -37.485
  H      161.021      -6.576     -46.403
  P      158.733      -5.135     -46.893
  C      160.875      -4.506     -48.160
  O      160.149      -5.541     -47.526
  O      159.180      -4.366     -45.557
  O      157.838      -4.300     -47.743
  H      159.481      -3.467     -45.774
  H      161.890      -4.859     -48.356
  H      160.929      -3.624     -47.517
  H      160.401      -4.248     -49.111
  H      163.336      -4.423     -41.055
  H      164.322      -5.605     -41.883
  H      162.654      -5.967     -41.508

 3  4  5  6  7  8  9  10  11  12  13  21  23  27  28  29  30  32 0
 6-311+G(2d,p)
 ****
 34  35 0
 6-311+G(2d,p)
 ****
 1  2  14  15  16  17  18  19  20  22  24  25  26 0
 3-21G
 ****
 31  33  36  37  38  39  40  41  42  43  44  45  46 0
 3-21G
 ****


