%nproc=1
%NoSave
%Mem=1900MB
#P OB98/GEN NMR

erre ene a

0 1
  C     -239.324     351.599     436.722
  O     -240.352     352.378     437.289
  H     -239.733     350.626     436.447
  H     -238.528     351.451     437.460
  H     -238.908     352.074     435.830
  P     -240.168     353.968     437.364
  C     -238.467     353.932     439.307
  O     -239.755     354.354     438.865
  C     -238.221     354.304     440.768
  O     -238.068     355.735     440.888
  C     -239.386     353.909     441.676
  O     -239.326     352.582     442.172
  C     -239.258     354.923     442.814
  O     -238.375     354.441     443.843
  C     -238.661     356.154     442.129
  N     -241.997     359.477     444.119
  C     -241.322     358.451     444.743
  N     -241.604     358.261     446.052
  N     -240.467     357.668     444.136
  C     -240.368     357.915     442.803
  C     -241.002     358.890     442.071
  C     -241.888     359.794     442.772
  O     -242.499     360.729     442.264
  N     -240.688     358.801     440.737
  C     -239.933     357.723     440.657
  N     -239.647     357.198     441.894
  O     -241.672     354.521     437.266
  O     -239.314     354.564     436.290
  H     -238.702     353.572     444.140
  H     -241.671     355.387     436.820
  H     -242.623     360.059     444.651
  H     -239.526     357.310     439.737
  H     -237.861     356.605     442.731
  H     -240.235     355.100     443.288
  H     -242.314     358.775     446.550
  H     -240.349     354.076     441.179
  H     -241.278     357.406     446.505
  H     -237.276     353.854     441.104
  H     -237.741     354.439     438.663
  H     -238.342     352.858     439.156
  P     -240.654     351.697     442.325
  C     -241.375     352.579     444.699
  O     -240.942     351.505     443.879
  O     -240.166     350.247     441.856
  O     -241.837     352.180     441.550
  H     -240.431     350.080     440.931
  H     -241.507     352.231     445.702
  H     -242.304     352.959     444.328
  H     -240.640     353.357     444.685

 6  7  8  9  10  11  12  13  14  15  26  29  33  34 0
 6-311+G(2d,p)
 ****
 36  38  39  40  41 0
 6-311+G(2d,p)
 ****
 1  2  3  4  5  16  17  18  19  20  21  22  23  24  25 0
 3-21G
 ****
 27  28  30  31  32  35  37  42  43  44  45  46  47 0
 3-21G
 ****
 48  49 0
 3-21G
 ****


