%nproc=1
%NoSave
%Mem=1900MB
#P OB98/GEN NMR

erre ene a

0 1
  C      156.479    -894.590    -122.145
  O      155.153    -894.730    -121.657
  P      153.946    -894.310    -122.627
  C      153.674    -896.480    -124.038
  O      154.130    -895.140    -123.990
  C      152.750    -896.680    -125.241
  O      151.593    -895.820    -125.083
  C      153.384    -896.360    -126.599
  O      152.785    -897.240    -127.557
  C      152.914    -894.940    -126.863
  O      152.958    -894.590    -128.244
  C      151.519    -894.990    -126.264
  N      149.062    -890.870    -127.893
  C      149.455    -892.000    -128.578
  N      149.080    -892.070    -129.876
  N      150.141    -892.980    -128.053
  C      150.423    -892.780    -126.747
  C      150.119    -891.700    -125.959
  C      149.327    -890.640    -126.546
  O      148.880    -889.670    -125.946
  N      150.650    -891.820    -124.703
  C      151.198    -893.020    -124.707
  N      151.045    -893.650    -125.902
  O      154.330    -892.810    -123.044
  O      152.573    -894.410    -122.035
  H      153.864    -894.770    -128.572
  H      153.893    -892.160    -122.457
  H      148.512    -890.160    -128.343
  H      151.709    -893.470    -123.869
  H      150.779    -895.420    -126.948
  H      153.555    -894.230    -126.316
  H      148.531    -891.370    -130.346
  H      154.464    -896.460    -126.614
  H      149.337    -892.900    -130.403
  H      152.387    -897.720    -125.227
  H      153.115    -896.700    -123.125
  H      154.535    -897.160    -124.084
  P      153.689    -897.730    -128.785
  C      155.391    -899.150    -127.433
  O      155.169    -898.000    -128.220
  O      153.863    -896.410    -129.658
  O      153.099    -898.830    -129.603
  H      153.930    -896.630    -130.601
  H      156.453    -899.400    -127.464
  H      154.813    -900.000    -127.787
  H      155.110    -898.920    -126.393
  H      157.171    -894.907    -121.393
  H      156.663    -893.565    -122.390
  H      156.603    -895.193    -123.020

 3  4  5  6  7  8  9  10  11  12  23  26  30  31 0
 6-311+G(2d,p)
 ****
 33  35  36  37  38 0
 6-311+G(2d,p)
 ****
 1  2  13  14  15  16  17  18  19  20  21  22  24  25 0
 3-21G
 ****
 27  28  29  32  34  39  40  41  42  43  44  45  46  47  48  49 0
 3-21G
 ****


