%nproc=1
%NoSave
%Mem=1900MB
#P OB98/GEN NMR

erre ene a

0 1
  C       45.596    -854.684      93.235
  O       46.954    -854.345      93.064
  P       47.384    -852.996      92.297
  C       49.467    -854.291      91.520
  O       48.375    -853.472      91.129
  C       49.858    -855.230      90.370
  O       48.763    -856.156      90.143
  C       50.102    -854.552      89.021
  O       51.423    -854.021      88.853
  C       49.915    -855.733      88.073
  O       51.103    -856.560      88.084
  C       48.752    -856.480      88.726
  N       45.944    -856.397      84.447
  C       47.183    -856.852      84.701
  N       47.881    -856.822      85.866
  C       47.123    -856.293      86.843
  C       45.837    -855.800      86.735
  C       45.226    -855.853      85.468
  N       43.943    -855.422      85.217
  N       45.393    -855.312      87.956
  C       46.395    -855.530      88.784
  N       47.468    -856.125      88.148
  O       47.905    -851.913      93.192
  O       46.066    -852.561      91.502
  H       51.804    -856.046      87.653
  H       46.131    -851.631      91.227
  H       47.719    -857.275      83.851
  H       46.409    -855.278      89.836
  H       48.860    -857.574      88.654
  H       49.745    -855.417      87.037
  H       49.335    -853.794      88.806
  H       50.733    -855.806      90.685
  H       49.146    -854.893      92.383
  H       43.557    -855.623      84.316
  H       43.363    -855.168      86.013
  H       50.310    -853.664      91.830
  P       51.534    -852.502      88.345
  C       54.126    -852.847      88.320
  O       52.975    -852.397      87.645
  O       51.243    -851.473      89.391
  O       50.508    -852.467      87.099
  H       50.779    -852.997      86.334
  H       54.983    -852.848      87.614
  H       53.992    -853.872      88.683
  H       54.374    -852.181      89.148
  H       45.524    -855.610      93.766
  H       45.130    -854.784      92.277
  H       45.104    -853.915      93.792

 3  4  5  6  7  8  9  10  11  12  22  25  29  30  31  32 0
 6-311+G(2d,p)
 ****
 33  36  37 0
 6-311+G(2d,p)
 ****
 1  2  13  14  15  16  17  18  19  20  21  23  24  26 0
 3-21G
 ****
 27  28  34  35  38  39  40  41  42  43  44  45  46  47  48 0
 3-21G
 ****


