%nproc=1
%NoSave
%Mem=1900MB
#P OB98/GEN NMR

erre ene a

0 1
  C      272.848    -429.552    -222.423
  O      273.469    -430.351    -223.412
  H      272.992    -428.500    -222.687
  H      273.311    -429.735    -221.450
  H      271.774    -429.756    -222.375
  P      273.289    -431.941    -223.351
  C      274.003    -433.847    -221.757
  O      274.143    -432.472    -222.091
  C      274.899    -434.202    -220.564
  O      276.290    -434.156    -221.000
  C      274.755    -433.257    -219.376
  O      274.862    -434.005    -218.161
  C      275.947    -432.327    -219.512
  O      276.347    -431.762    -218.259
  C      276.996    -433.245    -220.136
  N      281.465    -433.560    -222.475
  C      280.695    -434.543    -221.894
  N      281.192    -435.797    -221.918
  N      279.539    -434.316    -221.329
  C      279.147    -433.019    -221.394
  C      279.820    -431.954    -221.948
  C      281.113    -432.213    -222.546
  O      281.849    -431.375    -223.067
  N      279.105    -430.789    -221.797
  C      278.008    -431.155    -221.166
  N      277.991    -432.495    -220.882
  O      273.559    -432.658    -224.637
  O      271.777    -432.153    -222.874
  H      277.178    -431.264    -218.426
  H      271.213    -432.436    -223.615
  H      282.354    -433.781    -222.882
  H      277.201    -430.482    -220.875
  H      277.537    -433.832    -219.380
  H      275.691    -431.498    -220.190
  H      282.075    -436.049    -222.355
  H      273.801    -432.717    -219.386
  H      280.638    -436.550    -221.522
  H      274.692    -435.240    -220.276
  H      274.287    -434.447    -222.628
  H      272.953    -434.050    -221.510
  P      273.579    -434.138    -217.205
  C      272.309    -432.715    -215.479
  O      273.456    -432.812    -216.306
  O      273.473    -435.424    -216.455
  O      272.355    -433.972    -218.236
  H      271.618    -434.542    -217.942
  H      272.340    -431.795    -214.933
  H      272.293    -433.536    -214.793
  H      271.428    -432.740    -216.086

 6  7  8  9  10  11  12  13  14  15  26  29  33  34 0
 6-311+G(2d,p)
 ****
 36  38  39  40  41 0
 6-311+G(2d,p)
 ****
 1  2  3  4  5  16  17  18  19  20  21  22  23  24  25 0
 3-21G
 ****
 27  28  30  31  32  35  37  42  43  44  45  46  47 0
 3-21G
 ****
 48  49 0
 3-21G
 ****


