%nproc=1
%NoSave
%Mem=1900MB
#P OB98/GEN NMR

erre ene a

0 1
  C      222.953    -270.274    -231.549
  O      222.167    -271.448    -231.730
  P      221.602    -271.783    -233.195
  C      219.127    -271.060    -233.148
  O      220.454    -270.717    -233.544
  C      218.098    -270.335    -234.020
  O      218.156    -268.907    -233.838
  C      218.311    -270.560    -235.509
  O      217.904    -271.864    -235.892
  C      217.492    -269.419    -236.099
  O      216.100    -269.769    -236.167
  C      217.704    -268.293    -235.063
  N      218.640    -267.270    -235.511
  C      218.442    -265.987    -234.984
  O      217.503    -265.768    -234.217
  N      219.310    -264.987    -235.346
  C      220.283    -265.239    -236.172
  N      221.115    -264.213    -236.491
  C      220.516    -266.577    -236.761
  C      219.663    -267.527    -236.398
  O      221.248    -273.209    -233.442
  O      222.811    -271.319    -234.150
  H      215.813    -269.905    -235.243
  H      222.804    -271.870    -234.957
  H      221.343    -266.737    -237.438
  H      219.755    -268.537    -236.786
  H      216.754    -267.801    -234.833
  H      217.816    -269.173    -237.119
  H      219.371    -270.417    -235.757
  H      217.099    -270.692    -233.731
  H      220.925    -263.305    -236.087
  H      218.984    -270.792    -232.097
  H      221.924    -264.321    -237.087
  H      219.011    -272.147    -233.218
  P      218.998    -272.808    -236.576
  C      218.832    -272.008    -239.041
  O      219.592    -272.037    -237.843
  O      218.100    -273.966    -237.241
  O      220.011    -273.384    -235.642
  H      218.587    -274.811    -237.209
  H      219.208    -271.208    -239.678
  H      217.774    -271.834    -238.838
  H      218.953    -272.960    -239.570
  H      223.249    -270.197    -230.524
  H      222.377    -269.414    -231.819
  H      223.824    -270.329    -232.168

 3  4  5  6  7  8  9  10  11  12  13  23  27  28  29  30  32 0
 6-311+G(2d,p)
 ****
 34  35 0
 6-311+G(2d,p)
 ****
 1  2  14  15  16  17  18  19  20  21  22  24  25  26 0
 3-21G
 ****
 31  33  36  37  38  39  40  41  42  43  44  45  46 0
 3-21G
 ****


