%nproc=1
%NoSave
%Mem=1900MB
#P OB98/GEN NMR

erre ene a

0 1
  C      367.117    -422.106    -120.563
  O      366.057    -421.941    -119.633
  P      366.106    -420.798    -118.503
  C      364.143    -419.226    -119.114
  O      365.533    -419.479    -119.212
  C      363.876    -417.726    -119.026
  O      364.478    -417.216    -117.802
  C      364.445    -416.909    -120.197
  O      363.532    -415.832    -120.443
  C      365.752    -416.382    -119.636
  O      366.220    -415.232    -120.323
  C      365.362    -416.143    -118.174
  N      366.526    -416.096    -117.287
  C      366.980    -414.835    -116.884
  O      366.436    -413.808    -117.284
  N      368.051    -414.772    -116.031
  C      368.670    -415.857    -115.677
  N      369.691    -415.741    -114.783
  C      368.290    -417.197    -116.169
  C      367.208    -417.237    -116.944
  O      367.427    -420.628    -117.842
  O      364.918    -421.182    -117.505
  H      366.398    -415.481    -121.249
  H      365.190    -421.844    -116.821
  H      368.854    -418.070    -115.873
  H      366.837    -418.179    -117.329
  H      364.793    -415.215    -118.078
  H      366.523    -417.158    -119.716
  H      364.561    -417.503    -121.107
  H      362.792    -417.573    -118.942
  H      369.806    -414.841    -114.342
  H      363.767    -419.708    -118.204
  H      369.988    -416.538    -114.228
  H      363.622    -419.668    -119.975
  P      363.326    -415.346    -121.959
  C      361.676    -417.270    -122.515
  O      362.889    -416.617    -122.834
  O      364.847    -415.123    -122.440
  O      362.542    -414.087    -122.153
  H      364.857    -414.470    -123.161
  H      361.536    -418.105    -123.211
  H      360.833    -416.587    -122.624
  H      361.714    -417.670    -121.498
  H      366.889    -422.916    -121.224
  H      368.023    -422.320    -120.036
  H      367.238    -421.206    -121.129

 3  4  5  6  7  8  9  10  11  12  13  23  27  28  29  30  32 0
 6-311+G(2d,p)
 ****
 34  35 0
 6-311+G(2d,p)
 ****
 1  2  14  15  16  17  18  19  20  21  22  24  25  26 0
 3-21G
 ****
 31  33  36  37  38  39  40  41  42  43  44  45  46 0
 3-21G
 ****


