%nproc=1
%NoSave
%Mem=1900MB
#P OB98/GEN NMR

erre ene a

0 1
  C     -416.499    -117.133     -90.027
  O     -415.839    -117.875     -91.035
  H     -415.775    -116.465     -89.552
  H     -416.905    -117.809     -89.269
  H     -417.303    -116.536     -90.462
  P     -416.726    -118.964     -91.812
  C     -417.419    -117.076     -93.450
  O     -417.848    -118.143     -92.615
  C     -418.316    -116.968     -94.682
  O     -418.139    -115.692     -95.331
  C     -418.064    -118.038     -95.739
  O     -418.756    -119.235     -95.427
  C     -418.608    -117.352     -96.986
  O     -420.046    -117.449     -97.043
  C     -418.169    -115.898     -96.770
  N     -415.246    -112.073     -98.296
  C     -416.544    -112.070     -97.825
  N     -417.170    -110.872     -97.777
  N     -417.181    -113.146     -97.442
  C     -416.457    -114.279     -97.601
  C     -415.165    -114.416     -98.058
  C     -414.454    -113.209     -98.427
  O     -413.278    -113.136     -98.775
  N     -414.772    -115.728     -98.055
  C     -415.831    -116.388     -97.627
  N     -416.884    -115.549     -97.342
  O     -417.558    -119.673     -90.640
  O     -415.961    -119.963     -92.609
  H     -420.387    -116.791     -97.675
  H     -417.635    -120.624     -90.843
  H     -414.797    -111.212     -98.551
  H     -415.887    -117.460     -97.497
  H     -418.895    -115.186     -97.182
  H     -418.232    -117.819     -97.896
  H     -416.849    -110.081     -98.315
  H     -416.989    -118.221     -95.867
  H     -418.144    -110.883     -97.500
  H     -419.356    -117.011     -94.334
  H     -416.386    -117.269     -93.769
  H     -417.449    -116.141     -92.886
  P     -418.524    -120.512     -96.365
  C     -417.559    -122.064     -94.516
  O     -417.322    -121.377     -95.738
  O     -417.876    -119.873     -97.683
  O     -419.761    -121.278     -96.694
  H     -418.541    -119.854     -98.401
  H     -416.674    -122.591     -94.226
  H     -418.362    -122.759     -94.648
  H     -417.819    -121.358     -93.755

 6  7  8  9  10  11  12  13  14  15  26  29  33  34 0
 6-311+G(2d,p)
 ****
 36  38  39  40  41 0
 6-311+G(2d,p)
 ****
 1  2  3  4  5  16  17  18  19  20  21  22  23  24  25 0
 3-21G
 ****
 27  28  30  31  32  35  37  42  43  44  45  46  47 0
 3-21G
 ****
 48  49 0
 3-21G
 ****


