%nproc=1
%NoSave
%Mem=1900MB
#P OB98/GEN NMR

erre ene a

0 1
  C     -155.556    -101.398     -73.548
  O     -156.374    -100.262     -73.727
  P     -157.579    -100.282     -74.794
  C     -156.305     -98.397     -76.015
  O     -156.966     -99.657     -76.142
  C     -155.041     -98.365     -76.873
  O     -154.300     -99.597     -76.738
  C     -155.295     -98.195     -78.364
  O     -155.626     -96.848     -78.670
  C     -153.987     -98.680     -78.947
  O     -152.995     -97.645     -78.934
  C     -153.598     -99.825     -77.978
  N     -153.883    -101.145     -78.532
  C     -153.072    -101.549     -79.596
  O     -152.202    -100.794     -80.047
  N     -153.301    -102.783     -80.168
  C     -154.261    -103.527     -79.729
  N     -154.451    -104.727     -80.337
  C     -155.157    -103.126     -78.622
  C     -154.919    -101.933     -78.079
  O     -158.853     -99.665     -74.318
  O     -157.723    -101.838     -75.150
  H     -152.410     -97.817     -79.706
  H     -158.150    -102.341     -74.418
  H     -155.959    -103.776     -78.296
  H     -155.528    -101.556     -77.266
  H     -152.527     -99.773     -77.739
  H     -154.086     -99.009     -79.994
  H     -156.109     -98.867     -78.678
  H     -154.404     -97.545     -76.505
  H     -153.827    -104.948     -81.114
  H     -156.036     -98.250     -74.964
  H     -155.192    -105.369     -80.099
  H     -156.993     -97.594     -76.308
  P     -157.137     -96.450     -78.997
  C     -156.669     -94.722     -80.834
  O     -157.209     -96.001     -80.531
  O     -157.775     -95.504     -78.024
  O     -157.909     -97.860     -78.995
  H     -158.748     -97.755     -78.506
  H     -156.468     -94.677     -81.907
  H     -155.736     -94.545     -80.297
  H     -157.390     -93.953     -80.579
  H     -154.817    -101.192     -72.802
  H     -155.072    -101.638     -74.472
  H     -156.158    -102.225     -73.235

 3  4  5  6  7  8  9  10  11  12  13  23  27  28  29  30  32 0
 6-311+G(2d,p)
 ****
 34  35 0
 6-311+G(2d,p)
 ****
 1  2  14  15  16  17  18  19  20  21  22  24  25  26 0
 3-21G
 ****
 31  33  36  37  38  39  40  41  42  43  44  45  46 0
 3-21G
 ****


