%nproc=1
%NoSave
%Mem=1900MB
#P OB98/GEN NMR

erre ene a

0 1
  C      186.240     -30.437    -376.020
  O      187.286     -29.923    -375.219
  H      185.550     -29.625    -376.260
  H      185.698     -31.208    -375.464
  H      186.634     -30.854    -376.952
  P      188.578     -30.858    -375.025
  C      187.830     -31.925    -372.778
  O      188.098     -32.122    -374.158
  C      188.171     -33.179    -371.986
  O      187.247     -34.245    -372.302
  C      189.572     -33.732    -372.253
  O      190.556     -33.060    -371.477
  C      189.401     -35.169    -371.796
  O      189.429     -35.226    -370.352
  C      187.986     -35.499    -372.299
  N      189.120     -39.555    -375.126
  C      189.384     -39.304    -373.795
  N      190.054     -40.265    -373.120
  N      189.030     -38.205    -373.173
  C      188.392     -37.323    -373.981
  C      188.077     -37.457    -375.315
  C      188.462     -38.680    -375.980
  O      188.241     -38.957    -377.157
  N      187.425     -36.350    -375.797
  C      187.363     -35.541    -374.756
  N      187.939     -36.081    -373.631
  O      189.474     -30.009    -373.999
  O      189.330     -31.168    -376.275
  H      190.322     -34.948    -370.072
  H      190.193     -29.574    -374.495
  H      189.424     -40.414    -375.555
  H      186.908     -34.558    -374.761
  H      187.456     -36.191    -371.631
  H      190.195     -35.827    -372.154
  H      190.374     -41.123    -373.541
  H      189.816     -33.713    -373.325
  H      190.255     -40.102    -372.142
  H      188.046     -32.953    -370.918
  H      186.765     -31.690    -372.649
  H      188.428     -31.079    -372.416
  P      192.039     -32.934    -372.078
  C      193.099     -34.598    -370.397
  O      192.797     -34.311    -371.756
  O      192.729     -31.882    -371.088
  O      192.112     -32.472    -373.496
  H      192.898     -31.041    -371.559
  H      193.601     -35.541    -370.335
  H      192.192     -34.638    -369.831
  H      193.732     -33.831    -370.003

 6  7  8  9  10  11  12  13  14  15  26  29  33  34 0
 6-311+G(2d,p)
 ****
 36  38  39  40  41 0
 6-311+G(2d,p)
 ****
 1  2  3  4  5  16  17  18  19  20  21  22  23  24  25 0
 3-21G
 ****
 27  28  30  31  32  35  37  42  43  44  45  46  47 0
 3-21G
 ****
 48  49 0
 3-21G
 ****


