%nproc=1
%NoSave
%Mem=1900MB
#P OB98/GEN NMR

erre ene a

0 1
  C     -689.053     369.633     154.433
  O     -689.602     370.728     153.721
  H     -689.709     368.768     154.299
  H     -688.993     369.868     155.497
  H     -688.059     369.383     154.050
  P     -688.756     372.086     153.621
  C     -689.435     373.389     155.746
  O     -688.461     372.563     155.122
  C     -688.770     374.615     156.364
  O     -687.960     374.228     157.495
  C     -687.815     375.343     155.418
  O     -688.530     376.115     154.467
  C     -686.977     376.143     156.397
  O     -687.672     377.340     156.798
  C     -686.855     375.154     157.581
  N     -685.566     374.445     157.587
  C     -684.494     375.123     158.169
  O     -684.579     376.254     158.615
  N     -683.306     374.446     158.171
  C     -683.058     373.234     157.572
  O     -681.953     372.716     157.535
  C     -684.222     372.581     156.964
  C     -685.412     373.206     157.003
  O     -689.325     373.138     152.729
  O     -687.316     371.603     153.112
  H     -687.951     377.782     155.974
  H     -687.212     371.826     152.170
  H     -682.514     374.919     158.570
  H     -684.078     371.619     156.493
  H     -686.279     372.743     156.547
  H     -686.960     375.684     158.530
  H     -686.023     376.451     155.967
  H     -687.164     374.611     154.908
  H     -689.547     375.293     156.718
  H     -689.937     372.813     156.540
  H     -690.181     373.687     155.000
  P     -687.878     376.430     153.041
  C     -685.842     377.929     153.541
  O     -686.302     376.607     153.261
  O     -688.531     377.527     152.261
  O     -687.974     375.037     152.255
  H     -688.518     375.161     151.453
  H     -684.780     377.918     153.667
  H     -686.304     378.285     154.438
  H     -686.098     378.575     152.728

 6  7  8  9  10  11  12  13  14  15  16  26  31  32  33  34  35 0
 6-311+G(2d,p)
 ****
 36  37 0
 6-311+G(2d,p)
 ****
 1  2  3  4  5  17  18  19  20  21  22  23  24  25 0
 3-21G
 ****
 27  28  29  30  38  39  40  41  42  43  44  45 0
 3-21G
 ****


