%nproc=1
%NoSave
%Mem=1900MB
#P OB98/GEN NMR

erre ene a

0 1
  C     -536.504    -899.070     974.957
  O     -536.777    -898.020     974.051
  H     -536.917    -900.000     974.542
  H     -536.979    -898.870     975.918
  H     -535.429    -899.200     975.083
  P     -536.141    -896.570     974.327
  C     -534.414    -896.680     972.427
  O     -535.569    -896.040     972.933
  C     -534.459    -896.720     970.901
  O     -535.612    -897.490     970.451
  C     -534.617    -895.340     970.258
  O     -533.407    -894.620     970.290
  C     -535.114    -895.740     968.867
  O     -534.011    -896.100     968.018
  C     -536.006    -896.970     969.166
  N     -537.431    -896.620     969.147
  C     -538.079    -896.780     967.941
  O     -537.536    -897.190     966.920
  N     -539.400    -896.390     967.912
  C     -540.057    -895.740     968.935
  O     -541.139    -895.200     968.788
  C     -539.328    -895.660     970.212
  C     -538.059    -896.070     970.258
  O     -535.187    -896.500     975.473
  O     -537.420    -895.640     974.574
  H     -537.524    -895.500     975.528
  H     -534.396    -896.440     967.199
  H     -539.866    -896.450     967.030
  H     -539.830    -895.220     971.050
  H     -537.491    -896.000     971.182
  H     -535.828    -897.750     968.432
  H     -535.637    -894.920     968.377
  H     -535.415    -894.790     970.758
  H     -533.546    -897.220     970.529
  H     -534.378    -897.720     972.814
  H     -533.516    -896.150     972.765
  P     -533.432    -893.020     970.062
  C     -533.067    -892.570     972.572
  O     -532.591    -892.340     971.241
  O     -534.781    -892.430     969.827
  O     -532.481    -892.810     968.780
  H     -532.947    -892.240     968.139
  H     -532.429    -892.070     973.270
  H     -533.064    -893.620     972.775
  H     -534.064    -892.192     972.665

 6  7  8  9  10  11  12  13  14  15  16  27  31  32  33  34  35 0
 6-311+G(2d,p)
 ****
 36  37 0
 6-311+G(2d,p)
 ****
 1  2  3  4  5  17  18  19  20  21  22  23  24  25 0
 3-21G
 ****
 26  28  29  30  38  39  40  41  42  43  44  45 0
 3-21G
 ****


