%nproc=1
%NoSave
%Mem=1900MB
#P OB98/GEN NMR

erre ene a

0 1
  C      114.165     233.434     243.218
  O      114.447     234.633     242.488
  P      114.842     234.519     240.935
  C      117.419     234.648     240.907
  O      116.274     233.806     240.818
  C      118.714     233.806     241.025
  O      118.902     232.989     239.830
  C      119.960     234.681     241.185
  O      120.939     234.006     242.013
  C      120.514     234.738     239.776
  O      121.904     235.087     239.768
  C      120.198     233.320     239.284
  N      123.078     233.317     235.042
  C      123.402     233.368     236.355
  N      122.584     233.328     237.428
  C      121.305     233.241     237.034
  C      120.811     233.193     235.739
  C      121.768     233.231     234.711
  N      121.419     233.229     233.372
  N      119.436     233.098     235.746
  C      119.097     233.155     237.002
  N      120.182     233.220     237.841
  O      114.701     235.769     240.135
  O      113.844     233.381     240.399
  H      122.111     235.419     238.860
  H      113.500     233.647     239.513
  H      124.466     233.430     236.560
  H      118.073     233.178     237.386
  H      120.914     232.588     239.669
  H      119.965     235.505     239.200
  H      119.772     235.681     241.605
  H      118.600     233.115     241.864
  H      117.325     235.309     241.766
  H      122.162     233.380     232.705
  H      120.447     233.293     233.113
  H      117.452     235.300     240.033
  P      121.035     234.535     243.529
  C      123.049     236.218     243.515
  O      121.649     236.010     243.459
  O      121.743     233.581     244.442
  O      119.492     234.747     243.914
  H      118.990     235.279     243.261
  H      123.249     237.281     243.303
  H      123.544     235.607     242.755
  H      123.418     235.962     244.506
  H      113.921     233.682     244.230
  H      115.025     232.797     243.204
  H      113.338     232.927     242.766

 3  4  5  6  7  8  9  10  11  12  22  25  29  30  31  32 0
 6-311+G(2d,p)
 ****
 33  36  37 0
 6-311+G(2d,p)
 ****
 1  2  13  14  15  16  17  18  19  20  21  23  24  26 0
 3-21G
 ****
 27  28  34  35  38  39  40  41  42  43  44  45  46  47  48 0
 3-21G
 ****


