%nproc=1
%NoSave
%Mem=1900MB
#P OB98/GEN NMR

erre ene a

0 1
  C      613.513    -365.000    -355.905
  O      612.700    -365.598    -354.911
  H      613.082    -365.212    -356.886
  H      614.528    -365.393    -355.869
  H      613.524    -363.913    -355.766
  P      613.255    -365.641    -353.405
  C      614.088    -368.050    -352.961
  O      614.434    -366.740    -353.413
  C      613.370    -368.835    -354.060
  O      614.029    -368.635    -355.330
  C      613.393    -370.349    -353.849
  O      612.600    -370.782    -352.768
  C      613.121    -370.885    -355.252
  O      611.729    -370.964    -355.563
  C      613.783    -369.797    -356.142
  N      615.002    -370.287    -356.774
  C      615.196    -369.902    -358.091
  O      614.412    -369.193    -358.724
  N      616.340    -370.367    -358.690
  C      617.245    -371.216    -358.129
  O      618.216    -371.633    -358.729
  C      616.964    -371.624    -356.738
  C      615.881    -371.148    -356.127
  O      612.225    -365.861    -352.334
  O      614.055    -364.259    -353.259
  H      611.368    -371.724    -355.054
  H      614.217    -364.046    -352.302
  H      616.506    -370.085    -359.644
  H      617.665    -372.297    -356.263
  H      615.641    -371.433    -355.109
  H      613.091    -369.486    -356.937
  H      613.548    -371.873    -355.388
  H      614.422    -370.636    -353.608
  H      612.339    -368.463    -354.149
  H      613.406    -367.934    -352.105
  H      614.986    -368.574    -352.631
  P      612.827    -372.188    -352.022
  C      610.985    -374.018    -352.225
  O      612.070    -373.332    -352.856
  O      612.709    -372.175    -350.531
  O      614.378    -372.486    -352.377
  H      614.769    -372.928    -351.610
  H      610.583    -374.746    -352.899
  H      610.222    -373.315    -351.963
  H      611.338    -374.507    -351.341

 6  7  8  9  10  11  12  13  14  15  16  26  31  32  33  34  35 0
 6-311+G(2d,p)
 ****
 36  37 0
 6-311+G(2d,p)
 ****
 1  2  3  4  5  17  18  19  20  21  22  23  24  25 0
 3-21G
 ****
 27  28  29  30  38  39  40  41  42  43  44  45 0
 3-21G
 ****


