%nproc=1
%NoSave
%Mem=1900MB
#P OB98/GEN NMR

erre ene a

0 1
  C      196.329    -256.907     -81.843
  O      196.694    -258.075     -81.133
  H      197.237    -256.347     -82.083
  H      195.675    -256.272     -81.241
  H      195.828    -257.180     -82.775
  P      195.531    -258.924     -80.425
  C      196.741    -258.943     -78.146
  O      196.254    -259.725     -79.232
  C      197.836    -259.682     -77.376
  O      197.355    -260.957     -76.901
  C      199.066    -260.014     -78.209
  O      199.816    -258.900     -78.628
  C      199.735    -261.087     -77.363
  O      200.526    -260.535     -76.311
  C      198.505    -261.825     -76.771
  N      198.278    -263.117     -77.401
  C      199.328    -264.026     -77.328
  O      200.408    -263.772     -76.787
  N      199.116    -265.237     -77.928
  C      197.997    -265.600     -78.621
  O      197.876    -266.700     -79.155
  C      196.933    -264.586     -78.699
  C      197.120    -263.409     -78.098
  O      194.716    -259.795     -81.336
  O      194.672    -257.822     -79.647
  H      199.927    -259.992     -75.759
  H      193.792    -258.183     -79.374
  H      199.860    -265.917     -77.870
  H      196.039    -264.838     -79.248
  H      196.348    -262.647     -78.136
  H      198.648    -261.992     -75.695
  H      200.389    -261.734     -77.951
  H      198.728    -260.514     -79.129
  H      198.101    -259.078     -76.498
  H      195.900    -258.742     -77.473
  H      197.125    -257.988     -78.526
  P      199.594    -258.151     -80.017
  C      201.845    -258.712     -81.226
  O      201.025    -257.728     -80.604
  O      198.485    -257.150     -80.073
  O      199.183    -259.379     -80.988
  H      198.541    -259.033     -81.637
  H      202.756    -258.259     -81.557
  H      201.328    -259.128     -82.065
  H      202.067    -259.488     -80.523

 6  7  8  9  10  11  12  13  14  15  16  26  31  32  33  34  35 0
 6-311+G(2d,p)
 ****
 36  37 0
 6-311+G(2d,p)
 ****
 1  2  3  4  5  17  18  19  20  21  22  23  24  25 0
 3-21G
 ****
 27  28  29  30  38  39  40  41  42  43  44  45 0
 3-21G
 ****


