%nproc=1
%NoSave
%Mem=1900MB
#P OB98/GEN NMR

erre ene a

0 1
  C      380.813     740.235     109.425
  O      381.684     740.919     108.539
  H      381.349     740.022     110.355
  H      380.489     739.281     108.992
  H      379.939     740.847     109.655
  P      381.178     741.201     107.051
  C      382.956     739.751     105.855
  O      381.588     739.901     106.200
  C      383.194     738.367     105.262
  O      382.719     737.335     106.154
  C      382.456     738.142     103.948
  O      383.097     738.816     102.878
  C      382.461     736.632     103.867
  O      383.728     736.135     103.387
  C      382.245     736.244     105.347
  N      380.844     735.933     105.650
  C      380.422     734.633     105.347
  O      381.202     733.817     104.857
  N      379.104     734.302     105.578
  C      378.298     735.179     106.096
  N      377.000     734.784     106.305
  C      378.704     736.555     106.444
  C      379.982     736.858     106.182
  O      381.589     742.500     106.424
  O      379.579     741.077     107.159
  H      383.837     736.515     102.496
  H      379.187     741.944     107.378
  H      377.994     737.252     106.869
  H      380.360     737.847     106.421
  H      382.853     735.365     105.608
  H      381.679     736.259     103.199
  H      381.415     738.470     104.033
  H      384.279     738.227     105.126
  H      376.776     733.839     106.039
  H      383.536     739.857     106.777
  H      376.316     735.338     106.767
  H      383.260     740.526     105.146
  P      382.342     739.092     101.499
  C      384.193     737.958     100.119
  O      382.819     737.925     100.496
  O      382.447     740.484     100.975
  O      380.819     738.649     101.837
  H      380.375     739.320     102.406
  H      384.401     737.144      99.456
  H      384.805     737.871     100.993
  H      384.405     738.883      99.625

 6  7  8  9  10  11  12  13  14  15  16  26  30  31  32  33  35 0
 6-311+G(2d,p)
 ****
 37  38 0
 6-311+G(2d,p)
 ****
 1  2  3  4  5  17  18  19  20  21  22  23  24  25 0
 3-21G
 ****
 27  28  29  34  36  39  40  41  42  43  44  45  46 0
 3-21G
 ****


