%nproc=1
%NoSave
%Mem=1900MB
#P OB98/GEN NMR

erre ene a

0 1
  C      -86.734      75.525    -362.333
  O      -86.157      75.090    -363.546
  H      -85.938      75.901    -361.684
  H      -87.229      74.691    -361.830
  H      -87.450      76.331    -362.510
  P      -87.124      74.645    -364.745
  C      -85.772      76.266    -366.221
  O      -87.065      75.805    -365.849
  C      -85.823      77.761    -366.529
  O      -85.980      78.513    -365.304
  C      -84.554      78.300    -367.178
  O      -84.472      77.934    -368.542
  C      -84.711      79.788    -366.916
  O      -85.572      80.398    -367.885
  C      -85.364      79.804    -365.517
  N      -84.396      80.108    -364.462
  C      -84.707      81.183    -363.637
  O      -85.731      81.857    -363.749
  N      -83.761      81.507    -362.701
  C      -82.511      80.960    -362.612
  O      -81.615      81.443    -361.929
  C      -82.266      79.791    -363.467
  C      -83.200      79.431    -364.348
  O      -88.497      74.220    -364.342
  O      -86.323      73.445    -365.445
  H      -86.713      72.595    -365.166
  H      -85.071      80.393    -368.727
  H      -83.959      82.313    -362.124
  H      -81.311      79.283    -363.374
  H      -83.027      78.589    -365.014
  H      -86.168      80.548    -365.478
  H      -83.749      80.303    -366.955
  H      -83.677      77.933    -366.635
  H      -86.700      77.954    -367.162
  H      -85.448      75.721    -367.114
  H      -85.072      76.062    -365.404
  P      -83.156      77.217    -369.108
  C      -83.792      75.506    -370.915
  O      -83.541      75.718    -369.530
  O      -81.946      77.332    -368.240
  O      -82.909      77.927    -370.523
  H      -81.975      78.217    -370.570
  H      -84.038      74.478    -371.080
  H      -82.918      75.759    -371.479
  H      -84.609      76.122    -371.228

 6  7  8  9  10  11  12  13  14  15  16  27  31  32  33  34  35 0
 6-311+G(2d,p)
 ****
 36  37 0
 6-311+G(2d,p)
 ****
 1  2  3  4  5  17  18  19  20  21  22  23  24  25 0
 3-21G
 ****
 26  28  29  30  38  39  40  41  42  43  44  45 0
 3-21G
 ****


