%nproc=1
%NoSave
%Mem=1900MB
#P OB98/GEN NMR

erre ene a

0 1
  C     -171.200     -83.250     215.469
  O     -171.623     -83.185     216.822
  P     -172.611     -84.321     217.368
  C     -174.405     -82.508     217.873
  O     -173.663     -83.615     218.354
  C     -174.682     -81.517     219.006
  O     -175.533     -82.155     220.008
  C     -173.420     -81.022     219.727
  O     -173.654     -79.663     220.131
  C     -173.370     -81.915     220.952
  O     -172.567     -81.388     221.997
  C     -174.866     -82.011     221.278
  N     -175.182     -83.113     222.183
  C     -175.818     -82.796     223.381
  O     -176.123     -81.652     223.719
  N     -176.043     -83.847     224.231
  C     -175.626     -85.132     224.048
  O     -175.757     -86.004     224.903
  C     -174.959     -85.410     222.768
  C     -174.771     -84.404     221.907
  O     -171.680     -85.172     218.352
  O     -173.230     -85.170     216.310
  H     -171.649     -81.358     221.674
  H     -171.372     -85.988     217.910
  H     -176.514     -83.637     225.096
  H     -174.633     -86.425     222.583
  H     -174.263     -84.575     220.966
  H     -175.215     -81.066     221.718
  H     -172.959     -82.892     220.674
  H     -172.512     -81.086     219.118
  H     -175.246     -80.665     218.600
  H     -175.354     -82.861     217.466
  H     -173.854     -82.018     217.060
  P     -173.196     -78.493     219.128
  C     -171.322     -77.429     220.617
  O     -172.607     -77.312     220.043
  O     -174.623     -77.935     218.654
  O     -172.334     -78.963     218.007
  H     -175.257     -77.850     219.387
  H     -170.638     -77.979     219.965
  H     -171.401     -77.952     221.575
  H     -170.919     -76.430     220.789
  H     -170.549     -82.427     215.259
  H     -172.054     -83.202     214.826
  H     -170.679     -84.169     215.302

 3  4  5  6  7  8  9  10  11  12  13  23  28  29  30  31  32 0
 6-311+G(2d,p)
 ****
 33  34 0
 6-311+G(2d,p)
 ****
 1  2  14  15  16  17  18  19  20  21  22  24  25  26 0
 3-21G
 ****
 27  35  36  37  38  39  40  41  42  43  44  45 0
 3-21G
 ****


