%nproc=1
%NoSave
%Mem=1900MB
#P OB98/GEN NMR

erre ene a

0 1
  C       30.839     202.876    -117.021
  O       31.734     201.798    -117.238
  P       31.172     200.494    -117.988
  C       30.710     199.026    -115.907
  O       30.148     199.790    -116.969
  C       29.962     197.708    -115.731
  O       28.601     197.994    -115.298
  C       29.870     196.858    -117.010
  O       30.126     195.483    -116.685
  C       28.409     196.972    -117.410
  O       27.974     195.855    -118.183
  C       27.752     197.089    -116.034
  N       23.004     195.922    -117.304
  C       24.110     195.108    -117.192
  N       23.937     193.806    -117.518
  N       25.286     195.525    -116.797
  C       25.303     196.843    -116.473
  C       24.273     197.751    -116.534
  C       22.993     197.287    -117.033
  O       22.001     197.978    -117.239
  N       24.674     198.993    -116.108
  C       25.944     198.836    -115.793
  N       26.386     197.562    -116.041
  O       32.437     199.516    -117.997
  O       30.655     200.725    -119.367
  H       27.120     196.103    -118.587
  H       32.638     199.247    -118.915
  H       22.128     195.556    -117.632
  H       26.591     199.621    -115.414
  H       27.766     196.116    -115.522
  H       28.267     197.883    -118.002
  H       23.053     193.411    -117.793
  H       30.543     197.180    -117.812
  H       24.733     193.188    -117.416
  H       30.439     197.139    -114.922
  H       30.646     199.603    -114.979
  H       31.764     198.833    -116.131
  P       31.098     194.693    -117.687
  C       29.305     193.522    -119.173
  O       30.279     194.539    -119.058
  O       31.120     193.208    -117.086
  O       32.465     195.283    -117.800
  H       31.937     192.743    -117.352
  H       29.101     193.033    -118.215
  H       29.656     192.770    -119.884
  H       28.376     193.962    -119.547
  H       31.351     203.668    -116.515
  H       30.017     202.542    -116.422
  H       30.474     203.231    -117.962

 3  4  5  6  7  8  9  10  11  12  23  26  30  31  33  0
 6-311+G(2d,p)
 ****
 35  36  37  38 0
 6-311+G(2d,p)
 ****
 1  2  13  14  15  16  17  18  19  20  21  22  24  25  27  28  29 0
 3-21G
 ****
 32  34  39  40  41  42  43  44  45  46  47  48  49 0
 3-21G
 ****


