%nproc=1
%NoSave
%Mem=1900MB
#P OB98/GEN NMR

erre ene a

0 1
  C      286.798     766.561     210.614
  O      286.462     765.648     209.589
  H      286.446     767.564     210.351
  H      286.307     766.252     211.539
  H      287.881     766.576     210.767
  P      287.049     765.946     208.128
  C      288.276     763.686     207.781
  O      287.197     764.526     207.380
  C      288.091     762.294     207.189
  O      286.828     761.757     207.664
  C      288.085     762.243     205.647
  O      289.117     761.364     205.177
  C      286.739     761.634     205.296
  O      286.808     760.703     204.219
  C      286.300     760.957     206.595
  N      282.251     758.172     205.247
  C      283.560     757.853     205.361
  N      284.570     758.612     205.830
  C      284.126     759.818     206.232
  C      282.815     760.273     206.189
  C      281.856     759.403     205.650
  N      280.532     759.751     205.480
  N      282.740     761.569     206.669
  C      283.984     761.896     206.956
  N      284.861     760.871     206.683
  O      288.561     766.385     208.421
  O      286.319     766.990     207.352
  H      287.475     760.035     204.465
  H      288.773     767.196     207.934
  H      283.832     756.851     205.029
  H      284.324     762.871     207.304
  H      286.713     759.944     206.689
  H      286.045     762.441     205.020
  H      288.193     763.232     205.191
  H      288.883     761.641     207.589
  H      288.295     763.617     208.872
  H      279.943     759.107     204.982
  H      280.257     760.702     205.684
  H      289.222     764.133     207.449
  P      290.363     762.058     204.419
  C      291.321     759.676     204.898
  O      291.511     760.950     204.280
  O      290.951     763.050     205.541
  O      289.985     762.788     203.167
  H      291.403     763.805     205.125
  H      292.174     759.058     204.711
  H      290.447     759.210     204.493
  H      291.199     759.806     205.953

 6  7  8  9  10  11  12  13  14  15  25  28  32  33  34  35 0
 6-311+G(2d,p)
 ****
 36  39  40 0
 6-311+G(2d,p)
 ****
 1  2  3  4  5  16  17  18  19  20  21  22  23  24 0
 3-21G
 ****
 26  27  29  30  31  37  38  41  42  43  44  45  46  47  48 0
 3-21G
 ****


