%nproc=1
%NoSave
%Mem=1900MB
#P OB98/GEN NMR

erre ene a

0 1
  C       85.548     -89.160    -129.006
  O       85.577     -88.129    -128.037
  P       86.055     -86.675    -128.534
  C       87.005     -86.392    -126.118
  O       87.194     -86.204    -127.511
  C       88.251     -87.043    -125.513
  O       88.699     -88.133    -126.342
  C       89.440     -86.101    -125.366
  O       89.312     -85.318    -124.194
  C       90.603     -87.087    -125.324
  O       90.752     -87.650    -124.007
  C       90.153     -88.155    -126.332
  N       93.436     -89.824    -129.795
  C       93.304     -90.159    -128.459
  N       94.144     -91.109    -127.993
  N       92.431     -89.614    -127.656
  C       91.669     -88.670    -128.255
  C       91.713     -88.241    -129.561
  C       92.649     -88.889    -130.452
  O       92.737     -88.698    -131.662
  N       90.799     -87.248    -129.797
  C       90.181     -87.101    -128.642
  N       90.656     -87.954    -127.678
  O       84.806     -85.744    -128.183
  O       86.449     -86.594    -129.975
  H       91.387     -88.387    -124.043
  H       84.252     -85.594    -128.976
  H       94.116     -90.289    -130.369
  H       89.373     -86.409    -128.457
  H       90.458     -89.164    -126.027
  H       91.556     -86.611    -125.569
  H       94.859     -91.555    -128.547
  H       89.532     -85.461    -126.253
  H       94.065     -91.365    -127.017
  H       87.969     -87.460    -124.537
  H       86.143     -87.045    -125.956
  H       86.810     -85.422    -125.648
  P       89.221     -83.726    -124.376
  C       91.173     -83.258    -122.730
  O       90.669     -83.130    -124.046
  O       88.322     -83.266    -123.136
  O       88.627     -83.284    -125.671
  H       87.753     -82.519    -123.403
  H       92.262     -83.310    -122.774
  H       90.793     -84.157    -122.236
  H       90.883     -82.379    -122.147
  H       85.215     -90.069    -128.550
  H       86.530     -89.301    -129.406
  H       84.877     -88.890    -129.794

 3  4  5  6  7  8  9  10  11  12  23  26  30  31 0
 6-311+G(2d,p)
 ****
 33  35  36  37  38 0
 6-311+G(2d,p)
 ****
 1  2  13  14  15  16  17  18  19  20  21  22  24  25 0
 3-21G
 ****
 27  28  29  32  34  39  40  41  42  43  44  45  46  47  48  49 0
 3-21G
 ****


