%nproc=1
%NoSave
%Mem=1900MB
#P OB98/GEN NMR

erre ene a

0 1
  C      283.372    -152.700    -288.113
  O      282.593    -153.124    -287.011
  H      283.463    -151.612    -288.083
  H      282.884    -152.986    -289.053
  H      284.369    -153.145    -288.059
  P      282.289    -154.696    -286.903
  C      283.411    -154.973    -284.596
  O      282.184    -154.979    -285.323
  C      283.181    -155.445    -283.161
  O      282.644    -154.333    -282.391
  C      282.188    -156.610    -283.045
  O      282.602    -157.480    -281.988
  C      280.891    -155.925    -282.644
  O      279.986    -156.809    -281.992
  C      281.417    -154.782    -281.774
  N      279.513    -151.226    -278.668
  C      280.569    -152.063    -278.548
  N      281.020    -152.969    -279.435
  C      280.298    -152.920    -280.576
  C      279.200    -152.119    -280.844
  C      278.795    -151.245    -279.814
  N      277.707    -150.412    -279.914
  N      278.700    -152.392    -282.106
  C      279.493    -153.331    -282.590
  N      280.459    -153.696    -281.693
  O      283.225    -155.585    -287.648
  O      280.755    -154.768    -287.365
  H      279.245    -156.279    -281.626
  H      280.216    -154.082    -286.924
  H      281.113    -152.006    -277.602
  H      279.393    -153.789    -283.573
  H      281.641    -155.104    -280.745
  H      280.391    -155.529    -283.539
  H      282.082    -157.175    -283.967
  H      284.147    -155.704    -282.711
  H      283.838    -153.960    -284.586
  H      277.494    -149.814    -279.128
  H      277.159    -150.401    -280.770
  H      284.111    -155.644    -285.112
  P      283.459    -158.790    -282.341
  C      285.311    -158.473    -280.585
  O      284.229    -159.279    -281.020
  O      284.299    -158.695    -283.573
  O      282.316    -159.911    -282.512
  H      282.537    -160.473    -283.287
  H      285.741    -158.899    -279.702
  H      284.957    -157.487    -280.369
  H      286.052    -158.425    -281.355

 6  7  8  9  10  11  12  13  14  15  25  28  32  33  34  35 0
 6-311+G(2d,p)
 ****
 36  39  40 0
 6-311+G(2d,p)
 ****
 1  2  3  4  5  16  17  18  19  20  21  22  23  24 0
 3-21G
 ****
 26  27  29  30  31  37  38  41  42  43  44  45  46  47 0
 3-21G
 ****
 48 0
 3-21G
 ****


