%nproc=1
%NoSave
%Mem=1900MB
#P OB98/GEN NMR

erre ene a

0 1
  C      103.864     352.836    -361.090
  O      104.301     354.200    -361.168
  P      105.707     354.614    -360.524
  C      106.729     355.003    -358.178
  O      105.609     354.542    -358.928
  C      106.333     355.186    -356.711
  O      105.565     356.403    -356.502
  C      105.443     354.063    -356.193
  O      106.026     352.783    -356.045
  C      104.820     354.692    -354.958
  O      105.676     354.584    -353.824
  C      104.673     356.170    -355.392
  N      103.298     356.528    -355.740
  C      102.487     356.935    -354.681
  O      102.869     356.961    -353.515
  N      101.201     357.286    -355.014
  C      100.658     357.233    -356.268
  O       99.493     357.539    -356.501
  C      101.551     356.762    -357.338
  C      102.808     356.442    -357.034
  O      106.320     355.866    -361.069
  O      106.639     353.343    -360.868
  H      105.332     355.179    -353.140
  H      107.516     353.685    -361.135
  H      100.605     357.597    -354.263
  H      101.151     356.704    -358.339
  H      103.496     356.101    -357.806
  H      104.997     356.838    -354.585
  H      103.875     354.211    -354.686
  H      104.623     353.930    -356.924
  H      107.250     355.270    -356.111
  H      107.080     355.954    -358.594
  H      107.553     354.291    -358.290
  P      105.386     351.456    -356.667
  C      103.046     350.324    -356.623
  O      103.939     351.229    -356.008
  O      106.273     350.257    -356.786
  O      104.994     351.942    -358.148
  H      105.085     351.189    -358.754
  H      102.113     350.311    -356.051
  H      103.472     349.315    -356.633
  H      102.824     350.646    -357.649
  H      102.911     352.739    -361.568
  H      103.779     352.547    -360.063
  H      104.575     352.205    -361.581

 3  4  5  6  7  8  9  10  11  12  13  23  28  29  30  31  32 0
 6-311+G(2d,p)
 ****
 33  34 0
 6-311+G(2d,p)
 ****
 1  2  14  15  16  17  18  19  20  21  22  24  25  26  27 0
 3-21G
 ****
 35  36  37  38  39  40  41  42  43  44  45 0
 3-21G
 ****


