%nproc=1
%NoSave
%Mem=1900MB
#P OB98/GEN NMR

erre ene a

0 1
  C     -662.924     -51.223    -603.328
  O     -662.280     -51.016    -604.570
  P     -661.502     -49.634    -604.788
  C     -659.677     -50.634    -606.350
  O     -659.968     -50.035    -605.092
  C     -658.949     -51.962    -606.178
  O     -659.739     -52.833    -605.314
  C     -658.725     -52.737    -607.440
  O     -657.585     -52.252    -608.159
  C     -658.470     -54.145    -606.898
  O     -657.097     -54.253    -606.446
  C     -659.424     -54.195    -605.685
  N     -661.582     -58.742    -606.378
  C     -660.265     -58.408    -606.119
  N     -659.383     -59.444    -605.985
  N     -659.832     -57.184    -605.979
  C     -660.795     -56.251    -606.090
  C     -662.139     -56.456    -606.370
  C     -662.597     -57.814    -606.559
  O     -663.738     -58.159    -606.865
  N     -662.820     -55.262    -606.408
  C     -661.934     -54.342    -606.105
  N     -660.663     -54.900    -605.951
  O     -661.428     -49.015    -603.307
  O     -662.136     -48.687    -605.744
  H     -657.008     -55.126    -606.036
  H     -661.344     -48.058    -603.328
  H     -661.867     -59.700    -606.473
  H     -662.127     -53.282    -605.989
  H     -658.941     -54.659    -604.814
  H     -658.640     -54.936    -607.645
  H     -659.690     -60.406    -605.936
  H     -659.623     -52.757    -608.072
  H     -658.431     -59.225    -605.738
  H     -657.997     -51.754    -605.647
  H     -659.037     -49.961    -606.918
  H     -660.620     -50.778    -606.898
  P     -657.668     -52.322    -609.789
  C     -657.252     -49.780    -610.139
  O     -658.181     -50.857    -610.208
  O     -658.972     -53.250    -610.021
  O     -656.452     -52.840    -610.438
  H     -658.899     -53.676    -610.894
  H     -656.234     -50.098    -610.415
  H     -657.234     -49.365    -609.121
  H     -657.553     -48.996    -610.842
  H     -663.398     -52.182    -603.328
  H     -663.660     -50.461    -603.177
  H     -662.201     -51.182    -602.540

 3  4  5  6  7  8  9  10  11  12  23  26  30  31  33  0
 6-311+G(2d,p)
 ****
 35  36  37  38 0
 6-311+G(2d,p)
 ****
 1  2  13  14  15  16  17  18  19  20  21  22  24  25  27  28  29 0
 3-21G
 ****
 32  34  39  40  41  42  43  44  45  46  47  48  49 0
 3-21G
 ****


