%nproc=1
%NoSave
%Mem=1900MB
#P OB98/GEN NMR

erre ene a

0 1
  C      288.066    -435.130     161.109
  O      289.155    -436.026     161.209
  H      287.698    -434.915     162.115
  H      287.256    -435.580     160.531
  H      288.381    -434.192     160.645
  P      289.880    -436.507     159.860
  C      289.146    -438.968     159.496
  O      290.100    -438.086     160.074
  C      289.438    -440.406     159.915
  O      290.669    -440.884     159.329
  C      289.623    -440.615     161.414
  O      288.415    -440.550     162.153
  C      290.226    -442.008     161.412
  O      289.200    -442.979     161.159
  C      291.209    -441.902     160.221
  N      292.567    -441.551     160.638
  C      293.445    -442.619     160.863
  O      293.075    -443.781     160.719
  N      294.727    -442.341     161.278
  C      295.090    -441.113     161.477
  N      296.367    -440.898     161.896
  C      294.190    -439.962     161.273
  C      292.960    -440.246     160.857
  O      291.097    -435.736     159.461
  O      288.721    -436.490     158.756
  H      288.732    -443.128     162.001
  H      289.121    -436.770     157.895
  H      294.533    -438.957     161.481
  H      292.237    -439.456     160.687
  H      291.240    -442.844     159.658
  H      290.699    -442.273     162.359
  H      290.366    -439.911     161.817
  H      288.627    -441.032     159.518
  H      296.962    -441.707     162.030
  H      289.195    -438.858     158.406
  H      296.713    -439.980     162.149
  H      288.141    -438.705     159.834
  P      288.352    -439.487     163.358
  C      287.313    -441.044     165.182
  O      287.140    -439.947     164.301
  O      287.815    -438.164     162.643
  O      289.645    -439.268     164.079
  H      288.554    -437.558     162.434
  H      286.408    -441.208     165.729
  H      288.109    -440.831     165.865
  H      287.552    -441.921     164.617

 6  7  8  9  10  11  12  13  14  15  16  26  30  31  32  33  35 0
 6-311+G(2d,p)
 ****
 37  38 0
 6-311+G(2d,p)
 ****
 1  2  3  4  5  17  18  19  20  21  22  23  24  25 0
 3-21G
 ****
 27  28  29  34  36  39  40  41  42  43  44  45  46 0
 3-21G
 ****


