%nproc=1
%NoSave
%Mem=1900MB
#P OB98/GEN NMR

erre ene a

0 1
  C      370.509     -41.015     -24.331
  O      370.770     -40.286     -23.147
  H      369.512     -41.457     -24.257
  H      371.243     -41.818     -24.454
  H      370.536     -40.345     -25.195
  P      372.210     -39.585     -23.038
  C      374.559     -40.421     -22.387
  O      373.204     -40.781     -22.628
  C      375.112     -41.195     -21.188
  O      374.409     -40.759     -19.994
  C      374.935     -42.711     -21.306
  O      376.084     -43.365     -20.763
  C      373.726     -42.998     -20.429
  O      373.720     -44.336     -19.934
  C      373.867     -41.924     -19.348
  N      370.271     -43.664     -16.170
  C      371.499     -44.128     -16.483
  N      372.406     -43.588     -17.334
  C      371.946     -42.431     -17.846
  C      370.715     -41.839     -17.621
  C      369.848     -42.509     -16.739
  N      368.583     -42.058     -16.433
  N      370.595     -40.680     -18.364
  C      371.742     -40.566     -19.012
  N      372.582     -41.613     -18.746
  O      372.276     -38.372     -22.170
  O      372.572     -39.347     -24.578
  H      374.600     -44.526     -19.547
  H      372.357     -40.130     -25.121
  H      371.797     -45.054     -15.995
  H      372.003     -39.762     -19.695
  H      374.543     -42.228     -18.540
  H      372.807     -42.849     -21.009
  H      374.776     -43.035     -22.334
  H      376.166     -40.925     -21.051
  H      374.637     -39.344     -22.195
  H      368.033     -42.594     -15.780
  H      368.258     -41.189     -16.835
  H      375.138     -40.656     -23.287
  P      377.376     -43.540     -21.701
  C      377.901     -44.573     -24.007
  O      377.005     -44.537     -22.903
  O      378.656     -43.833     -20.996
  O      377.451     -42.121     -22.452
  H      378.391     -41.868     -22.556
  H      377.543     -45.271     -24.734
  H      378.871     -44.875     -23.670
  H      377.964     -43.600     -24.447

 6  7  8  9  10  11  12  13  14  15  25  28  32  33  34  35 0
 6-311+G(2d,p)
 ****
 36  39  40 0
 6-311+G(2d,p)
 ****
 1  2  3  4  5  16  17  18  19  20  21  22  23  24 0
 3-21G
 ****
 26  27  29  30  31  37  38  41  42  43  44  45  46  47 0
 3-21G
 ****
 48 0
 3-21G
 ****


