%nproc=1
%NoSave
%Mem=1900MB
#P OB98/GEN NMR

erre ene a

0 1
  C      -83.418    -169.092      -4.494
  O      -84.480    -168.502      -5.255
  P      -85.481    -169.478      -6.034
  C      -87.683    -170.701      -5.384
  O      -86.839    -169.577      -5.187
  C      -88.991    -170.528      -4.604
  O      -88.766    -170.540      -3.176
  C      -89.709    -169.219      -4.901
  O      -90.491    -169.304      -6.084
  C      -90.618    -169.103      -3.687
  O      -91.779    -169.939      -3.863
  C      -89.730    -169.647      -2.562
  N      -90.267    -165.239      -0.140
  C      -91.211    -166.039      -0.751
  N      -92.489    -165.603      -0.706
  N      -90.930    -167.165      -1.355
  C      -89.616    -167.481      -1.307
  C      -88.585    -166.773      -0.732
  C      -88.908    -165.523      -0.081
  O      -88.112    -164.766       0.466
  N      -87.385    -167.415      -0.895
  C      -87.690    -168.519      -1.548
  N      -89.029    -168.600      -1.837
  O      -84.819    -170.921      -5.808
  O      -85.641    -169.166      -7.485
  H      -92.330    -169.512      -4.547
  H      -85.052    -171.511      -6.547
  H      -90.539    -164.379       0.306
  H      -86.980    -169.287      -1.832
  H      -90.297    -170.227      -1.825
  H      -90.984    -168.083      -3.537
  H      -92.784    -164.774      -0.215
  H      -89.006    -168.377      -4.928
  H      -93.200    -166.192      -1.121
  H      -89.651    -171.366      -4.858
  H      -87.180    -171.617      -5.063
  H      -87.869    -170.823      -6.454
  P      -90.007    -168.469      -7.365
  C      -87.663    -168.380      -8.476
  O      -88.662    -169.173      -7.869
  O      -89.506    -167.091      -6.721
  O      -91.057    -168.247      -8.399
  H      -89.653    -166.357      -7.348
  H      -86.763    -168.988      -8.606
  H      -87.417    -167.517      -7.852
  H      -88.001    -168.041      -9.460
  H      -82.837    -168.320      -4.034
  H      -82.793    -169.670      -5.142
  H      -83.831    -169.726      -3.738

 3  4  5  6  7  8  9  10  11  12  23  26  30  31 0
 6-311+G(2d,p)
 ****
 33  35  36  37  38 0
 6-311+G(2d,p)
 ****
 1  2  13  14  15  16  17  18  19  20  21  22  24  25 0
 3-21G
 ****
 27  28  29  32  34  39  40  41  42  43  44  45  46  47  48  49 0
 3-21G
 ****


