%nproc=1
%NoSave
%Mem=1900MB
#P OB98/GEN NMR

erre ene a

0 1
  C      -18.433       2.425     -25.911
  O      -18.660       3.439     -26.869
  H      -19.398       2.062     -25.548
  H      -17.867       2.825     -25.066
  H      -17.888       1.593     -26.364
  P      -17.354       4.146     -27.479
  C      -17.586       6.003     -25.687
  O      -16.737       5.045     -26.301
  C      -16.991       6.472     -24.362
  O      -16.862       5.368     -23.440
  C      -15.610       7.107     -24.483
  O      -15.711       8.474     -24.843
  C      -15.070       6.908     -23.075
  O      -15.593       7.907     -22.173
  C      -15.611       5.517     -22.716
  N      -12.196       2.314     -20.830
  C      -12.852       3.370     -20.232
  N      -12.532       3.632     -18.946
  N      -13.736       4.115     -20.841
  C      -13.914       3.776     -22.139
  C      -13.324       2.754     -22.847
  C      -12.388       1.904     -22.144
  O      -11.838       0.904     -22.594
  N      -13.780       2.719     -24.141
  C      -14.615       3.737     -24.222
  N      -14.726       4.413     -23.035
  O      -17.956       5.231     -28.493
  O      -16.397       3.236     -28.170
  H      -15.162       8.760     -22.359
  H      -17.381       5.276     -29.280
  H      -11.548       1.756     -20.304
  H      -15.167       4.018     -25.109
  H      -15.844       5.432     -21.649
  H      -13.984       7.005     -23.043
  H      -11.676       3.298     -18.528
  H      -14.984       6.555     -25.193
  H      -12.959       4.452     -18.533
  H      -17.702       7.180     -23.916
  H      -18.563       5.544     -25.504
  H      -17.712       6.857     -26.359
  P      -14.507       9.129     -25.672
  C      -13.307       9.701     -23.442
  O      -13.202       9.126     -24.736
  O      -14.918      10.675     -25.738
  O      -14.315       8.568     -27.040
  H      -15.241      10.894     -26.632
  H      -12.365       9.626     -22.941
  H      -14.053       9.180     -22.879
  H      -13.582      10.731     -23.531

 6  7  8  9  10  11  12  13  14  15  26  29  33  34 0
 6-311+G(2d,p)
 ****
 36  38  39  40  41 0
 6-311+G(2d,p)
 ****
 1  2  3  4  5  16  17  18  19  20  21  22  23  24  25 0
 3-21G
 ****
 27  28  30  31  32  35  37  42  43  44  45  46  47 0
 3-21G
 ****
 48  49 0
 3-21G
 ****


