%nproc=1
%NoSave
%Mem=1900MB
#P OB98/GEN NMR

erre ene a

0 1
  C     -388.240    -152.744    -424.915
  O     -386.824    -152.713    -424.831
  H     -388.540    -152.361    -425.897
  H     -388.688    -152.119    -424.140
  H     -388.598    -153.769    -424.822
  P     -386.147    -152.990    -423.404
  C     -385.193    -150.596    -423.584
  O     -385.886    -151.534    -422.765
  C     -384.479    -149.546    -422.726
  O     -385.441    -148.629    -422.151
  C     -383.718    -150.128    -421.541
  O     -382.576    -150.876    -421.901
  C     -383.568    -148.924    -420.620
  O     -382.430    -148.116    -420.919
  C     -384.869    -148.128    -420.925
  N     -385.815    -148.182    -419.817
  C     -385.356    -147.688    -418.602
  O     -384.212    -147.258    -418.426
  N     -386.245    -147.757    -417.556
  C     -387.492    -148.305    -417.606
  O     -388.221    -148.370    -416.618
  C     -387.917    -148.838    -418.909
  C     -387.070    -148.749    -419.945
  O     -384.934    -153.875    -423.414
  O     -387.353    -153.565    -422.515
  H     -381.666    -148.515    -420.465
  H     -387.011    -154.014    -421.703
  H     -385.926    -147.394    -416.666
  H     -388.903    -149.274    -418.982
  H     -387.360    -149.136    -420.918
  H     -384.623    -147.070    -421.110
  H     -383.486    -149.235    -419.571
  H     -384.388    -150.830    -421.027
  H     -383.805    -148.962    -423.380
  H     -385.931    -150.097    -424.219
  H     -384.472    -151.119    -424.221
  P     -381.712    -151.726    -420.851
  C     -379.443    -150.687    -421.594
  O     -380.366    -150.902    -420.526
  O     -381.615    -153.195    -421.083
  O     -382.579    -151.517    -419.494
  H     -382.498    -152.333    -418.971
  H     -378.604    -150.130    -421.233
  H     -379.925    -150.139    -422.377
  H     -379.109    -151.631    -421.972

 6  7  8  9  10  11  12  13  14  15  16  26  31  32  33  34  35 0
 6-311+G(2d,p)
 ****
 36  37 0
 6-311+G(2d,p)
 ****
 1  2  3  4  5  17  18  19  20  21  22  23  24  25 0
 3-21G
 ****
 27  28  29  30  38  39  40  41  42  43  44  45 0
 3-21G
 ****


