%nproc=1
%NoSave
%Mem=1900MB
#P OB98/GEN NMR

erre ene a

0 1
  C       39.847     -81.665     122.430
  O       41.129     -82.128     122.056
  H       39.475     -80.996     121.651
  H       39.904     -81.113     123.371
  H       39.159     -82.508     122.533
  P       41.886     -83.085     123.097
  C       43.159     -81.293     124.481
  O       43.239     -82.330     123.514
  C       44.533     -80.661     124.668
  O       44.452     -79.579     125.623
  C       45.585     -81.612     125.221
  O       46.100     -82.480     124.228
  C       46.620     -80.627     125.738
  O       47.500     -80.189     124.690
  C       45.745     -79.462     126.249
  N       45.650     -79.443     127.704
  C       46.593     -78.659     128.361
  O       47.462     -78.015     127.773
  N       46.532     -78.668     129.727
  C       45.662     -79.398     130.484
  O       45.707     -79.419     131.707
  C       44.678     -80.197     129.735
  C       44.722     -80.191     128.400
  O       42.391     -84.293     122.176
  O       41.054     -83.558     124.241
  H       41.815     -85.069     122.301
  H       48.052     -79.481     125.075
  H       47.214     -78.115     130.221
  H       43.969     -80.784     130.306
  H       44.019     -80.789     127.828
  H       46.165     -78.500     125.926
  H       47.247     -81.072     126.511
  H       45.179     -82.175     126.070
  H       44.858     -80.244     123.704
  H       42.824     -81.709     125.437
  H       42.429     -80.549     124.147
  P       46.041     -84.062     124.488
  C       48.663     -83.986     124.353
  O       47.458     -84.653     124.026
  O       45.031     -84.526     123.340
  O       45.631     -84.427     125.874
  H       45.127     -84.014     122.519
  H       49.493     -84.534     123.958
  H       48.755     -83.917     125.417
  H       48.652     -83.003     123.931

 6  7  8  9  10  11  12  13  14  15  16  27  31  32  33  34  35 0
 6-311+G(2d,p)
 ****
 36  37 0
 6-311+G(2d,p)
 ****
 1  2  3  4  5  17  18  19  20  21  22  23  24  25 0
 3-21G
 ****
 26  28  29  30  38  39  40  41  42  43  44  45 0
 3-21G
 ****


