%nproc=1
%NoSave
%Mem=1900MB
#P OB98/GEN NMR

erre ene a

0 1
  C      523.765    -576.378     652.239
  O      524.352    -577.237     651.278
  H      523.710    -575.359     651.850
  H      522.752    -576.729     652.454
  H      524.349    -576.396     653.162
  P      525.835    -576.874     650.792
  C      526.804    -578.557     652.511
  O      526.828    -577.226     652.004
  C      528.222    -579.120     652.561
  O      529.034    -578.236     653.374
  C      528.329    -580.539     653.143
  O      528.937    -581.419     652.195
  C      529.269    -580.393     654.334
  O      530.191    -581.470     654.459
  C      529.978    -579.071     654.061
  N      533.307    -579.421     657.906
  C      533.331    -579.931     656.655
  N      532.466    -579.714     655.642
  C      531.506    -578.851     656.016
  C      531.363    -578.227     657.248
  C      532.309    -578.564     658.231
  N      532.253    -578.086     659.523
  N      530.240    -577.413     657.255
  C      529.695    -577.575     656.074
  N      530.416    -578.444     655.290
  O      525.831    -575.273     650.765
  O      526.225    -577.446     649.470
  H      529.661    -582.278     654.596
  H      526.208    -574.955     649.920
  H      534.151    -580.604     656.434
  H      528.771    -577.123     655.736
  H      530.854    -579.202     653.407
  H      528.671    -580.331     655.249
  H      527.357    -580.941     653.459
  H      528.636    -579.095     651.542
  H      526.196    -579.186     651.854
  H      532.904    -578.469     660.190
  H      531.453    -577.540     659.798
  H      526.349    -578.553     653.505
  P      527.965    -582.479     651.466
  C      527.728    -581.474     649.079
  O      527.131    -581.680     650.355
  O      526.867    -582.789     652.593
  O      528.656    -583.713     651.001
  H      526.493    -583.682     652.457
  H      527.052    -580.930     648.453
  H      527.946    -582.421     648.630
  H      528.634    -580.917     649.195

 6  7  8  9  10  11  12  13  14  15  25  28  32  33  34  35 0
 6-311+G(2d,p)
 ****
 36  39  40 0
 6-311+G(2d,p)
 ****
 1  2  3  4  5  16  17  18  19  20  21  22  23  24 0
 3-21G
 ****
 26  27  29  30  31  37  38  41  42  43  44  45  46  47  48 0
 3-21G
 ****


