%nproc=1
%NoSave
%Mem=1900MB
#P OB98/GEN NMR

erre ene a

0 1
  C      192.933    -176.543    -107.607
  O      191.702    -177.237    -107.733
  P      190.356    -176.368    -107.826
  C      188.624    -175.466    -106.099
  O      189.860    -176.125    -106.316
  C      187.914    -176.047    -104.872
  O      187.453    -177.384    -105.194
  C      188.787    -176.161    -103.617
  O      187.929    -175.966    -102.490
  C      189.260    -177.600    -103.657
  O      189.680    -178.079    -102.382
  C      188.022    -178.286    -104.221
  N      189.814    -182.958    -103.455
  C      189.728    -181.888    -102.581
  N      190.120    -182.119    -101.309
  N      189.294    -180.698    -102.923
  C      188.922    -180.626    -104.221
  C      188.997    -181.601    -105.192
  C      189.444    -182.916    -104.794
  O      189.454    -183.913    -105.510
  N      188.612    -181.122    -106.416
  C      188.227    -179.883    -106.171
  N      188.352    -179.555    -104.847
  O      189.296    -177.411    -108.408
  O      190.444    -175.118    -108.646
  H      189.684    -179.056    -102.416
  H      189.235    -177.343    -109.381
  H      190.142    -183.851    -103.131
  H      187.846    -179.189    -106.902
  H      187.263    -178.483    -103.453
  H      190.110    -177.693    -104.345
  H      190.437    -183.017    -100.970
  H      189.616    -175.443    -103.593
  H      190.035    -181.362    -100.641
  H      187.029    -175.437    -104.665
  H      187.981    -175.616    -106.976
  H      188.795    -174.392    -105.977
  P      188.610    -175.623    -101.078
  C      190.307    -176.772     -99.496
  O      189.496    -176.885    -100.648
  O      187.367    -175.684    -100.064
  O      189.284    -174.291    -101.012
  H      187.503    -175.046     -99.338
  H      190.516    -177.777     -99.114
  H      189.817    -176.193     -98.708
  H      191.254    -176.294     -99.762
  H      193.736    -177.248    -107.557
  H      192.920    -175.953    -106.715
  H      193.071    -175.905    -108.455

 3  4  5  6  7  8  9  10  11  12  23  26  30  31 0
 6-311+G(2d,p)
 ****
 33  35  36  37  38 0
 6-311+G(2d,p)
 ****
 1  2  13  14  15  16  17  18  19  20  21  22  24  25 0
 3-21G
 ****
 27  28  29  32  34  39  40  41  42  43  44  45  46  47  48  49 0
 3-21G
 ****


