%nproc=1
%NoSave
%Mem=1900MB
#P OB98/GEN NMR

erre ene a

0 1
  C      114.170    -203.960    -249.504
  O      113.087    -204.861    -249.369
  H      114.148    -203.539    -250.513
  H      115.126    -204.473    -249.359
  H      114.070    -203.147    -248.781
  P      113.058    -205.818    -248.081
  C      113.334    -207.825    -249.683
  O      112.568    -207.252    -248.627
  C      113.159    -209.343    -249.734
  O      113.462    -209.935    -248.453
  C      111.741    -209.796    -250.048
  O      111.294    -209.487    -251.346
  C      111.770    -211.248    -249.596
  O      112.328    -212.114    -250.586
  C      112.714    -211.170    -248.368
  N      111.994    -211.276    -247.108
  C      111.567    -212.551    -246.752
  O      111.754    -213.550    -247.454
  N      110.881    -212.648    -245.571
  C      110.547    -211.605    -244.755
  O      109.911    -211.756    -243.715
  C      110.991    -210.273    -245.200
  C      111.679    -210.171    -246.338
  O      112.267    -205.311    -246.911
  O      114.604    -206.071    -247.756
  H      113.201    -211.746    -250.827
  H      114.720    -206.443    -246.846
  H      110.579    -213.568    -245.288
  H      110.734    -209.428    -244.580
  H      112.023    -209.202    -246.684
  H      113.451    -211.984    -248.407
  H      110.776    -211.632    -249.359
  H      111.057    -209.275    -249.362
  H      113.876    -209.743    -250.463
  H      114.387    -207.588    -249.499
  H      113.033    -207.377    -250.639
  P      109.774    -209.174    -251.711
  C      109.959    -210.791    -253.759
  O      109.537    -209.526    -253.257
  O      109.204    -207.895    -251.184
  O      109.003    -210.387    -250.968
  H      108.143    -210.038    -250.662
  H      109.725    -210.857    -254.801
  H      109.453    -211.571    -253.230
  H      111.015    -210.894    -253.623

 6  7  8  9  10  11  12  13  14  15  16  26  31  32  33  34  35 0
 6-311+G(2d,p)
 ****
 36  37 0
 6-311+G(2d,p)
 ****
 1  2  3  4  5  17  18  19  20  21  22  23  24  25 0
 3-21G
 ****
 27  28  29  30  38  39  40  41  42  43  44  45 0
 3-21G
 ****


