%nproc=1
%NoSave
%Mem=1900MB
#P OB98/GEN NMR

erre ene a

0 1
  C      190.728    -297.772    -199.582
  O      191.504    -296.992    -200.471
  H      189.846    -297.198    -199.287
  H      191.311    -298.004    -198.685
  H      190.397    -298.699    -200.058
  P      192.707    -297.690    -201.266
  C      194.539    -295.922    -200.837
  O      194.062    -297.232    -200.543
  C      195.808    -295.617    -200.046
  O      196.268    -294.274    -200.403
  C      195.621    -295.640    -198.515
  O      196.860    -296.082    -197.935
  C      195.384    -294.169    -198.228
  O      195.495    -293.877    -196.855
  C      196.421    -293.545    -199.164
  N      196.235    -292.113    -199.365
  C      197.375    -291.323    -199.371
  O      198.520    -291.749    -199.235
  N      197.162    -289.973    -199.524
  C      195.946    -289.368    -199.669
  O      195.813    -288.161    -199.822
  C      194.777    -290.260    -199.629
  C      194.967    -291.570    -199.484
  O      192.690    -297.517    -202.749
  O      192.590    -299.235    -200.855
  H      192.113    -299.724    -201.552
  H      195.550    -292.905    -196.713
  H      197.980    -289.377    -199.531
  H      193.798    -289.805    -199.716
  H      194.129    -292.259    -199.445
  H      197.433    -293.735    -198.802
  H      194.371    -293.886    -198.525
  H      194.810    -296.302    -198.193
  H      196.599    -296.314    -200.359
  H      193.753    -295.210    -200.565
  H      194.739    -295.844    -201.910
  P      197.017    -297.488    -197.170
  C      196.842    -296.622    -194.746
  O      196.247    -297.421    -195.761
  O      198.440    -297.944    -197.050
  O      196.164    -298.539    -198.024
  H      196.613    -299.406    -198.009
  H      196.238    -296.659    -193.863
  H      196.915    -295.610    -195.086
  H      197.820    -296.996    -194.525

 6  7  8  9  10  11  12  13  14  15  16  27  31  32  33  34  35 0
 6-311+G(2d,p)
 ****
 36  37 0
 6-311+G(2d,p)
 ****
 1  2  3  4  5  17  18  19  20  21  22  23  24  25 0
 3-21G
 ****
 26  28  29  30  38  39  40  41  42  43  44  45 0
 3-21G
 ****


