%nproc=1
%NoSave
%Mem=1900MB
#P OB98/GEN NMR

erre ene a

0 1
  C     -270.834    -262.293     547.963
  O     -271.878    -262.809     548.774
  P     -272.670    -261.966     549.880
  C     -275.117    -262.634     549.125
  O     -274.092    -262.662     550.140
  C     -276.044    -263.847     549.248
  O     -275.312    -265.051     548.855
  C     -276.551    -264.059     550.696
  O     -277.927    -264.403     550.779
  C     -275.549    -265.056     551.253
  O     -276.011    -265.747     552.401
  C     -275.225    -265.919     550.040
  N     -272.624    -270.189     551.086
  C     -273.969    -269.908     551.303
  N     -274.700    -270.868     551.879
  N     -274.520    -268.763     550.976
  C     -273.640    -267.855     550.484
  C     -272.298    -268.017     550.239
  C     -271.703    -269.295     550.550
  O     -270.538    -269.602     550.366
  N     -271.743    -266.877     549.711
  C     -272.738    -266.015     549.658
  N     -273.917    -266.583     550.103
  O     -272.655    -260.481     549.706
  O     -271.868    -262.293     551.249
  H     -275.295    -266.306     552.729
  H     -271.948    -261.490     551.805
  H     -272.262    -271.092     551.331
  H     -272.669    -264.993     549.286
  H     -275.960    -266.722     549.883
  H     -274.633    -264.505     551.562
  H     -274.310    -271.730     552.244
  H     -276.486    -263.117     551.273
  H     -275.604    -270.579     552.233
  H     -276.894    -263.710     548.559
  H     -274.569    -262.657     548.153
  H     -275.662    -261.678     549.158
  P     -279.122    -263.582     551.445
  C     -280.998    -264.453     549.926
  O     -280.480    -264.408     551.232
  O     -279.326    -262.309     550.509
  O     -278.869    -263.159     552.870
  H     -279.167    -261.473     551.034
  H     -282.027    -264.799     549.953
  H     -280.408    -265.133     549.297
  H     -280.968    -263.453     549.470
  H     -270.477    -263.062     547.310
  H     -270.033    -261.954     548.586
  H     -271.205    -261.475     547.382

 3  4  5  6  7  8  9  10  11  12  23  26  30  31 0
 6-311+G(2d,p)
 ****
 33  35  36  37  38 0
 6-311+G(2d,p)
 ****
 1  2  13  14  15  16  17  18  19  20  21  22  24  25 0
 3-21G
 ****
 27  28  29  32  34  39  40  41  42  43  44  45  46  47  48  49 0
 3-21G
 ****


