%nproc=1
%NoSave
%Mem=1900MB
#P OB98/GEN NMR

erre ene a

0 1
  C     -137.861    -159.343      76.941
  O     -138.740    -158.738      77.866
  H     -136.858    -159.371      77.376
  H     -137.826    -158.755      76.021
  H     -138.171    -160.367      76.715
  P     -140.318    -158.811      77.597
  C     -140.219    -156.809      75.974
  O     -140.565    -158.176      76.144
  C     -141.172    -156.128      74.986
  O     -142.513    -156.126      75.562
  C     -140.807    -154.663      74.671
  O     -141.209    -154.404      73.320
  C     -141.693    -153.924      75.655
  O     -141.784    -152.557      75.354
  C     -142.970    -154.759      75.536
  N     -143.938    -154.499      76.594
  C     -144.862    -153.483      76.381
  O     -144.921    -152.814      75.352
  N     -145.731    -153.243      77.413
  C     -145.758    -153.901      78.607
  O     -146.573    -153.661      79.489
  C     -144.737    -154.947      78.785
  C     -143.888    -155.194      77.786
  O     -141.187    -158.267      78.680
  O     -140.587    -160.371      77.354
  H     -140.913    -160.779      78.178
  H     -142.294    -152.085      76.048
  H     -146.409    -152.509      77.276
  H     -144.719    -155.473      79.729
  H     -143.121    -155.956      77.881
  H     -143.449    -154.598      74.564
  H     -141.278    -153.995      76.665
  H     -139.738    -154.456      74.782
  H     -141.221    -156.729      74.070
  H     -139.194    -156.759      75.593
  H     -140.264    -156.302      76.944
  P     -140.205    -153.866      72.189
  C     -139.796    -151.427      72.918
  O     -139.253    -152.736      72.816
  O     -140.892    -153.432      70.934
  O     -139.208    -155.084      71.889
  H     -138.981    -155.087      70.940
  H     -139.068    -150.771      73.348
  H     -140.667    -151.450      73.539
  H     -140.062    -151.074      71.943

 6  7  8  9  10  11  12  13  14  15  16  27  31  32  33  34  35 0
 6-311+G(2d,p)
 ****
 36  37 0
 6-311+G(2d,p)
 ****
 1  2  3  4  5  17  18  19  20  21  22  23  24  25 0
 3-21G
 ****
 26  28  29  30  38  39  40  41  42  43  44  45 0
 3-21G
 ****


