%nproc=1
%NoSave
%Mem=1900MB
#P OB98/GEN NMR

erre ene a

0 1
  C     -129.848    -213.900      91.571
  O     -131.067    -214.637      91.505
  P     -132.522    -214.031      91.772
  C     -132.989    -215.082      94.141
  O     -132.747    -213.922      93.354
  C     -133.892    -214.757      95.343
  O     -133.280    -213.675      96.107
  C     -135.285    -214.276      94.914
  O     -136.347    -214.818      95.704
  C     -135.137    -212.760      94.905
  O     -136.375    -212.068      94.973
  C     -134.169    -212.530      96.067
  N     -134.314    -207.464      95.420
  C     -135.336    -208.388      95.322
  N     -136.557    -207.908      94.995
  N     -135.174    -209.672      95.512
  C     -133.894    -210.026      95.757
  C     -132.786    -209.204      95.862
  C     -132.984    -207.781      95.698
  O     -132.120    -206.915      95.794
  N     -131.652    -209.930      96.127
  C     -132.056    -211.182      96.163
  N     -133.419    -211.293      95.950
  O     -133.632    -214.630      90.972
  O     -132.381    -212.485      91.322
  H     -136.955    -212.425      94.276
  H     -133.255    -212.218      90.976
  H     -134.500    -206.482      95.288
  H     -131.421    -212.043      96.353
  H     -134.685    -212.476      97.030
  H     -134.662    -212.481      93.949
  H     -136.727    -206.956      94.714
  H     -135.524    -214.620      93.902
  H     -137.247    -208.610      94.708
  H     -133.950    -215.641      95.991
  H     -132.004    -215.418      94.494
  H     -133.412    -215.882      93.533
  P     -137.429    -215.918      95.296
  C     -139.661    -214.666      95.118
  O     -138.563    -215.217      94.408
  O     -138.200    -216.266      96.657
  O     -136.858    -217.168      94.696
  H     -138.072    -217.212      96.879
  H     -140.468    -214.466      94.406
  H     -139.361    -213.722      95.585
  H     -140.023    -215.363      95.880
  H     -129.027    -214.549      91.349
  H     -129.728    -213.496      92.555
  H     -129.875    -213.102      90.859

 3  4  5  6  7  8  9  10  11  12  23  26  30  31 0
 6-311+G(2d,p)
 ****
 33  35  36  37  38 0
 6-311+G(2d,p)
 ****
 1  2  13  14  15  16  17  18  19  20  21  22  24  25 0
 3-21G
 ****
 27  28  29  32  34  39  40  41  42  43  44  45  46  47  48  49 0
 3-21G
 ****


