%nproc=1
%NoSave
%Mem=1900MB
#P OB98/GEN NMR

erre ene a

0 1
  C      -64.690      54.434     -19.803
  O      -64.838      53.470     -18.775
  P      -66.072      53.521     -17.746
  C      -67.547      51.983     -19.213
  O      -67.379      53.268     -18.640
  C      -68.462      51.124     -18.337
  O      -69.727      51.818     -18.168
  C      -68.769      49.736     -18.912
  O      -68.872      48.830     -17.807
  C      -70.121      49.934     -19.570
  O      -70.831      48.715     -19.740
  C      -70.773      50.924     -18.599
  N      -71.876      51.660     -19.204
  C      -73.092      50.994     -19.365
  O      -73.218      49.818     -19.027
  N      -74.150      51.679     -19.909
  C      -73.985      52.893     -20.336
  N      -75.078      53.549     -20.812
  C      -72.688      53.596     -20.285
  C      -71.698      52.935     -19.693
  O      -66.126      54.741     -16.894
  O      -65.960      52.154     -16.928
  H      -70.427      48.225     -20.481
  H      -65.343      52.216     -16.156
  H      -72.594      54.599     -20.680
  H      -70.719      53.381     -19.588
  H      -71.126      50.398     -17.704
  H      -69.984      50.384     -20.560
  H      -67.993      49.382     -19.598
  H      -68.003      51.034     -17.343
  H      -75.977      53.099     -20.671
  H      -66.567      51.502     -19.276
  H      -75.103      54.562     -20.851
  H      -67.951      52.080     -20.226
  P      -68.368      47.319     -18.012
  C      -66.247      47.553     -16.534
  O      -66.779      47.296     -17.816
  O      -68.511      47.144     -19.602
  O      -69.151      46.258     -17.311
  H      -68.628      46.197     -19.808
  H      -65.156      47.489     -16.588
  H      -66.603      46.809     -15.815
  H      -66.523      48.555     -16.198
  H      -63.809      54.218     -20.370
  H      -64.605      55.408     -19.369
  H      -65.545      54.404     -20.446

 3  4  5  6  7  8  9  10  11  12  13  23  27  28  29  30  32 0
 6-311+G(2d,p)
 ****
 34  35 0
 6-311+G(2d,p)
 ****
 1  2  14  15  16  17  18  19  20  21  22  24  25  26 0
 3-21G
 ****
 31  33  36  37  38  39  40  41  42  43  44  45  46 0
 3-21G
 ****


