%nproc=1
%NoSave
%Mem=1900MB
#P OB98/GEN NMR

erre ene a

0 1
  C       53.973      -3.232     -64.779
  O       53.714      -3.075     -66.162
  P       54.535      -1.995     -67.012
  C       53.679       0.096     -65.722
  O       53.715      -0.620     -66.936
  C       52.841       1.375     -65.856
  O       52.770       1.999     -64.550
  C       53.426       2.428     -66.790
  O       52.388       3.345     -67.148
  C       54.427       3.120     -65.892
  O       54.780       4.414     -66.371
  C       53.715       3.094     -64.515
  N       54.675       2.905     -63.412
  C       55.219       4.055     -62.848
  O       54.876       5.190     -63.178
  N       56.234       3.860     -61.951
  C       56.767       2.650     -61.618
  O       57.853       2.511     -61.066
  C       56.000       1.474     -62.057
  C       55.018       1.651     -62.944
  O       54.313      -2.488     -68.518
  O       55.980      -1.890     -66.669
  H       55.092       4.299     -67.299
  H       55.071      -3.028     -68.811
  H       56.723       4.695     -61.653
  H       56.301       0.502     -61.691
  H       54.467       0.795     -63.327
  H       53.167       4.026     -64.331
  H       55.345       2.521     -65.850
  H       53.898       2.020     -67.690
  H       51.821       1.110     -66.161
  H       54.701       0.335     -65.413
  H       53.253      -0.525     -64.926
  P       52.068       3.545     -68.707
  C       54.565       3.632     -69.303
  O       53.328       4.317     -69.330
  O       50.734       4.127     -69.031
  O       52.232       2.064     -69.301
  H       51.781       2.005     -70.163
  H       55.172       3.966     -70.148
  H       54.426       2.549     -69.371
  H       55.088       3.872     -68.373
  H       53.335      -3.993     -64.381
  H       53.785      -2.308     -64.274
  H       54.995      -3.514     -64.637

 3  4  5  6  7  8  9  10  11  12  13  23  28  29  30  31  32 0
 6-311+G(2d,p)
 ****
 33  34 0
 6-311+G(2d,p)
 ****
 1  2  14  15  16  17  18  19  20  21  22  24  25  26  27 0
 3-21G
 ****
 35  36  37  38  39  40  41  42  43  44  45 0
 3-21G
 ****


