%nproc=1
%NoSave
%Mem=1900MB
#P OB98/GEN NMR

erre ene a

0 1
  C     -203.219     318.102     -98.876
  O     -202.993     317.715    -100.218
  H     -204.247     318.461     -98.786
  H     -202.539     318.910     -98.591
  H     -203.086     317.250     -98.206
  P     -201.538     317.187    -100.625
  C     -202.293     314.976     -99.523
  O     -201.243     315.922     -99.684
  C     -201.746     313.670     -98.958
  O     -202.820     312.745     -98.699
  C     -200.769     312.945     -99.883
  O     -199.472     313.508     -99.779
  C     -200.842     311.538     -99.316
  O     -200.074     311.466     -98.099
  C     -202.343     311.403     -98.998
  N     -205.937     308.027    -100.193
  C     -205.262     308.218     -99.002
  N     -205.568     307.370     -97.997
  N     -204.362     309.148     -98.818
  C     -204.110     309.877     -99.929
  C     -204.697     309.770    -101.169
  C     -205.741     308.780    -101.340
  O     -206.380     308.594    -102.371
  N     -204.116     310.618    -102.077
  C     -203.213     311.272    -101.374
  N     -203.162     310.854    -100.063
  O     -200.443     318.211    -100.628
  O     -201.748     316.528    -102.068
  H     -200.009     310.524     -97.856
  H     -201.578     317.173    -102.779
  H     -206.614     307.288    -100.278
  H     -202.575     312.059    -101.757
  H     -202.521     310.785     -98.111
  H     -200.440     310.785     -99.996
  H     -206.138     306.547     -98.122
  H     -201.131     312.932    -100.916
  H     -205.041     307.458     -97.136
  H     -201.276     313.893     -97.991
  H     -202.740     314.811    -100.507
  H     -203.063     315.372     -98.853
  P     -198.333     313.196    -100.868
  C     -198.716     315.564    -101.833
  O     -198.643     314.175    -102.099
  O     -198.194     311.758    -101.234
  O     -197.011     313.845    -100.252
  H     -196.542     313.243     -99.622
  H     -198.927     316.090    -102.740
  H     -197.782     315.901    -101.435
  H     -199.494     315.751    -101.123

 6  7  8  9  10  11  12  13  14  15  26  29  33  34 0
 6-311+G(2d,p)
 ****
 36  38  39  40  41 0
 6-311+G(2d,p)
 ****
 1  2  3  4  5  16  17  18  19  20  21  22  23  24  25 0
 3-21G
 ****
 27  28  30  31  32  35  37  42  43  44  45  46  47 0
 3-21G
 ****
 48  49 0
 3-21G
 ****


