%nproc=1
%NoSave
%Mem=1900MB
#P OB98/GEN NMR

erre ene a

0 1
  C      574.935    -674.933     -68.502
  O      574.165    -676.062     -68.873
  H      575.799    -674.872     -69.171
  H      575.288    -675.051     -67.476
  H      574.355    -674.011     -68.589
  P      572.672    -676.193     -68.312
  C      571.745    -676.707     -70.669
  O      571.868    -677.147     -69.318
  C      572.888    -677.247     -71.534
  O      572.821    -678.691     -71.579
  C      572.738    -676.745     -72.974
  O      574.001    -676.644     -73.639
  C      571.924    -677.853     -73.631
  O      572.062    -677.875     -75.046
  C      572.471    -679.089     -72.918
  N      570.706    -683.244     -75.274
  C      571.600    -682.300     -75.727
  N      572.063    -682.472     -76.984
  N      571.980    -681.267     -75.021
  C      571.381    -681.184     -73.808
  C      570.459    -682.052     -73.264
  C      570.072    -683.203     -74.039
  O      569.271    -684.064     -73.691
  N      570.057    -681.625     -72.014
  C      570.722    -680.508     -71.824
  N      571.549    -680.201     -72.878
  O      572.027    -674.758     -68.602
  O      572.552    -676.564     -66.862
  H      571.695    -677.038     -75.394
  H      571.298    -674.579     -67.986
  H      570.451    -684.027     -75.858
  H      570.648    -679.877     -70.937
  H      573.387    -679.438     -73.409
  H      570.864    -677.667     -73.414
  H      571.667    -683.132     -77.630
  H      572.231    -675.789     -73.026
  H      572.479    -681.646     -77.441
  H      573.854    -676.984     -71.089
  H      571.765    -675.605     -70.652
  H      570.771    -676.997     -71.070
  P      574.656    -675.183     -73.748
  C      577.188    -675.766     -73.352
  O      576.166    -675.374     -74.249
  O      574.805    -674.719     -72.229
  O      573.853    -674.227     -74.555
  H      574.124    -674.059     -72.017
  H      578.117    -675.837     -73.879
  H      576.945    -676.718     -72.928
  H      577.275    -675.040     -72.571

 6  7  8  9  10  11  12  13  14  15  26  29  33  34 0
 6-311+G(2d,p)
 ****
 36  38  39  40  41 0
 6-311+G(2d,p)
 ****
 1  2  3  4  5  16  17  18  19  20  21  22  23  24  25 0
 3-21G
 ****
 27  28  30  31  32  35  37  42  43  44  45  46  47 0
 3-21G
 ****
 48  49 0
 3-21G
 ****


