%nproc=1
%NoSave
%Mem=1900MB
#P OB98/GEN NMR

erre ene a

0 1
  C      107.429    -279.495     483.939
  O      107.283    -278.375     483.093
  P      108.563    -277.705     482.399
  C      107.666    -277.803     479.990
  O      108.632    -278.299     480.910
  C      108.160    -276.505     479.358
  O      107.961    -275.379     480.253
  C      109.652    -276.486     479.062
  O      110.132    -277.377     478.078
  C      109.894    -275.006     478.835
  O      109.524    -274.613     477.513
  C      108.933    -274.372     479.874
  N      109.652    -273.848     481.032
  C      110.108    -272.539     480.924
  O      109.934    -271.837     479.930
  N      110.806    -272.059     482.000
  C      111.126    -272.762     483.128
  O      111.797    -272.281     484.034
  C      110.631    -274.145     483.176
  C      109.925    -274.622     482.144
  O      109.838    -277.820     483.173
  O      108.094    -276.196     482.143
  H      109.592    -273.639     477.468
  H      107.312    -276.106     481.568
  H      111.158    -271.116     481.937
  H      110.856    -274.726     484.062
  H      109.553    -275.636     482.157
  H      108.367    -273.544     479.417
  H      110.948    -274.738     478.967
  H      110.187    -276.759     479.986
  H      107.568    -276.311     478.462
  H      106.731    -277.603     480.531
  H      107.459    -278.563     479.233
  P      111.652    -277.866     477.992
  C      111.963    -278.847     480.373
  O      112.283    -277.816     479.466
  O      112.477    -277.312     476.872
  O      111.472    -279.447     477.765
  H      112.214    -279.777     477.231
  H      112.440    -278.630     481.331
  H      112.343    -279.807     480.006
  H      110.883    -278.904     480.522
  H      106.468    -279.795     484.303
  H      108.059    -279.238     484.765
  H      107.870    -280.301     483.391

 3  4  5  6  7  8  9  10  11  12  13  23  28  29  30  31  32 0
 6-311+G(2d,p)
 ****
 33  34 0
 6-311+G(2d,p)
 ****
 1  2  14  15  16  17  18  19  20  21  22  24  25  26  27 0
 3-21G
 ****
 35  36  37  38  39  40  41  42  43  44  45 0
 3-21G
 ****


