%nproc=1
%NoSave
%Mem=1900MB
#P OB98/GEN NMR

erre ene a

0 1
  C     -155.641    -896.040      87.454
  O     -154.844    -896.220      88.605
  H     -156.684    -895.948      87.760
  H     -155.545    -896.900      86.781
  H     -155.348    -895.127      86.924
  P     -153.268    -896.360      88.369
  C     -153.213    -894.015      89.506
  O     -152.665    -894.893      88.517
  C     -152.099    -893.365      90.330
  O     -151.594    -894.347      91.284
  C     -150.896    -892.895      89.498
  O     -150.293    -891.773      90.170
  C     -149.957    -894.099      89.594
  O     -148.661    -893.777      89.162
  C     -150.163    -894.469      91.059
  N     -147.654    -897.320      94.473
  C     -148.007    -896.025      94.473
  N     -148.677    -895.328      93.542
  C     -149.038    -896.130      92.509
  C     -148.786    -897.490      92.388
  C     -148.052    -898.090      93.431
  N     -147.702    -899.420      93.427
  N     -149.301    -897.980      91.207
  C     -149.869    -896.930      90.636
  N     -149.719    -895.799      91.384
  O     -153.158    -896.650      86.789
  O     -152.583    -897.400      89.182
  H     -148.025    -894.473      89.437
  H     -153.097    -897.610      86.642
  H     -147.683    -895.440      95.342
  H     -150.390    -896.950      89.682
  H     -149.662    -893.756      91.727
  H     -150.322    -894.913      88.933
  H     -151.151    -892.610      88.465
  H     -152.518    -892.547      90.925
  H     -153.869    -894.588      90.153
  H     -153.804    -893.235      88.988
  H     -147.159    -899.770      94.205
  H     -147.954    -900.000      92.648
  P     -149.295    -890.810      89.373
  C     -150.055    -888.616      90.590
  O     -149.921    -889.325      89.363
  O     -149.543    -891.266      87.853
  O     -147.850    -890.907      89.734
  H     -148.725    -891.083      87.324
  H     -150.485    -887.654      90.401
  H     -149.091    -888.494      91.039
  H     -150.690    -889.166      91.253

 6  7  8  9  10  11  12  13  14  15  25  28  32  33  34  35 0
 6-311+G(2d,p)
 ****
 36  37  40 0
 6-311+G(2d,p)
 ****
 1  2  3  4  5  16  17  18  19  20  21  22  23  24 0
 3-21G
 ****
 26  27  29  30  31  38  39 41  42  43  44  45  46  47  48 0
 3-21G
 ****


