%nproc=1
%NoSave
%Mem=1900MB
#P OB98/GEN NMR

erre ene a

0 1
  C     -201.011    -153.151    -342.580
  O     -202.234    -152.436    -342.643
  P     -202.824    -152.055    -344.085
  C     -202.980    -149.786    -345.401
  O     -202.357    -150.551    -344.382
  C     -202.705    -148.293    -345.184
  O     -203.424    -147.850    -343.995
  C     -201.226    -147.938    -344.987
  O     -201.014    -146.657    -345.592
  C     -201.100    -147.839    -343.477
  O     -199.988    -147.061    -343.068
  C     -202.464    -147.229    -343.116
  N     -202.840    -147.438    -341.716
  C     -203.538    -146.422    -341.075
  O     -203.831    -145.349    -341.603
  N     -203.866    -146.660    -339.763
  C     -203.517    -147.764    -339.034
  O     -203.828    -147.918    -337.860
  C     -202.744    -148.784    -339.753
  C     -202.454    -148.584    -341.040
  O     -204.383    -151.925    -343.754
  O     -202.484    -153.040    -345.152
  H     -204.556    -151.554    -342.874
  H     -199.979    -147.036    -342.094
  H     -204.402    -145.949    -339.286
  H     -202.438    -149.663    -339.205
  H     -201.884    -149.321    -341.594
  H     -202.464    -146.155    -343.343
  H     -200.987    -148.847    -343.053
  H     -200.556    -148.679    -345.430
  H     -203.122    -147.740    -346.038
  H     -204.061    -149.960    -345.376
  H     -202.609    -150.113    -346.375
  P     -199.512    -146.257    -346.017
  C     -197.807    -144.410    -345.282
  O     -199.108    -144.947    -345.188
  O     -199.773    -145.683    -347.494
  O     -198.532    -147.391    -346.003
  H     -200.510    -145.052    -347.523
  H     -197.831    -143.367    -344.936
  H     -197.439    -144.426    -346.309
  H     -197.128    -144.977    -344.636
  H     -200.753    -153.327    -341.557
  H     -200.238    -152.578    -343.049
  H     -201.119    -154.087    -343.087

 3  4  5  6  7  8  9  10  11  12  13  24  28  29  30  31  32 0
 6-311+G(2d,p)
 ****
 33  34 0
 6-311+G(2d,p)
 ****
 1  2  14  15  16  17  18  19  20  21  22  23  25  26  27 0
 3-21G
 ****
 35  36  37  38  39  40  41  42  43  44  45 0
 3-21G
 ****


