%nproc=1
%NoSave
%Mem=1900MB
#P OB98/GEN NMR

erre ene a

0 1
  C       77.696    -136.309     174.702
  O       77.629    -135.524     175.873
  H       77.933    -135.655     173.858
  H       76.734    -136.789     174.512
  H       78.479    -137.066     174.787
  P       77.427    -136.255     177.285
  C       75.975    -134.268     178.049
  O       77.078    -135.112     178.354
  C       75.649    -133.385     179.250
  O       75.255    -134.198     180.377
  C       76.824    -132.544     179.736
  O       77.046    -131.446     178.876
  C       76.349    -132.186     181.136
  O       75.399    -131.111     181.100
  C       75.663    -133.502     181.576
  N       76.526    -134.342     182.407
  C       76.439    -134.140     183.781
  O       75.696    -133.308     184.295
  N       77.280    -134.901     184.549
  C       78.236    -135.753     184.078
  O       79.109    -136.245     184.785
  C       78.229    -135.983     182.626
  C       77.398    -135.266     181.867
  O       78.515    -137.190     177.692
  O       76.030    -137.021     177.114
  H       76.201    -137.964     176.932
  H       74.602    -131.462     180.657
  H       77.261    -134.728     185.544
  H       78.930    -136.702     182.220
  H       77.396    -135.396     180.791
  H       74.750    -133.286     182.144
  H       77.167    -131.868     181.784
  H       77.724    -133.165     179.815
  H       74.799    -132.745     178.983
  H       75.111    -134.896     177.814
  H       76.222    -133.658     177.174
  P       77.954    -131.589     177.567
  C       80.271    -130.664     178.148
  O       79.010    -130.383     177.558
  O       77.202    -131.762     176.290
  O       78.874    -132.870     177.864
  H       78.791    -133.500     177.124
  H       80.894    -129.796     178.088
  H       80.736    -131.474     177.626
  H       80.133    -130.934     179.174

 6  7  8  9  10  11  12  13  14  15  16  27  31  32  33  34  35 0
 6-311+G(2d,p)
 ****
 36  37 0
 6-311+G(2d,p)
 ****
 1  2  3  4  5  17  18  19  20  21  22  23  24  25 0
 3-21G
 ****
 26  28  29  30  38  39  40  41  42  43  44  45 0
 3-21G
 ****


