%nproc=1
%NoSave
%Mem=1900MB
#P OB98/GEN NMR

erre ene a

0 1
  C     -224.070     624.142    -189.476
  O     -224.462     622.998    -190.199
  H     -224.943     624.548    -188.954
  H     -223.691     624.909    -190.164
  H     -223.303     623.894    -188.739
  P     -223.304     622.227    -191.008
  C     -222.732     622.137    -193.550
  O     -223.249     622.903    -192.465
  C     -222.178     623.060    -194.622
  O     -223.249     623.870    -195.160
  C     -221.135     624.043    -194.118
  O     -219.857     623.439    -193.983
  C     -221.178     625.114    -195.206
  O     -220.378     624.760    -196.336
  C     -222.662     625.125    -195.598
  N     -224.948     629.576    -196.591
  C     -224.376     628.654    -197.398
  N     -223.800     627.481    -197.048
  C     -223.868     627.290    -195.721
  C     -224.417     628.143    -194.771
  C     -224.980     629.339    -195.264
  N     -225.528     630.297    -194.437
  N     -224.252     627.633    -193.504
  C     -223.633     626.484    -193.678
  N     -223.379     626.238    -195.003
  O     -223.958     620.786    -191.286
  O     -221.992     622.120    -190.301
  H     -220.700     623.886    -196.642
  H     -223.674     620.161    -190.589
  H     -224.372     628.885    -198.458
  H     -223.330     625.804    -192.888
  H     -222.805     625.187    -196.679
  H     -220.814     626.077    -194.831
  H     -221.450     624.489    -193.163
  H     -221.778     622.447    -195.442
  H     -223.544     621.531    -193.974
  H     -221.947     621.461    -193.170
  H     -225.894     631.139    -194.850
  H     -225.461     630.174    -193.438
  P     -218.805     624.094    -192.966
  C     -216.887     625.856    -193.134
  O     -218.008     625.239    -193.761
  O     -217.706     622.941    -192.762
  O     -219.388     624.542    -191.659
  H     -217.863     622.472    -191.933
  H     -216.471     626.591    -193.791
  H     -216.148     625.114    -192.915
  H     -217.201     626.326    -192.225

 6  7  8  9  10  11  12  13  14  15  25  28  32  33  34  35 0
 6-311+G(2d,p)
 ****
 36  37  40 0
 6-311+G(2d,p)
 ****
 1  2  3  4  5  16  17  18  19  20  21  22  23  24 0
 3-21G
 ****
 26  27  29  30  31  38  39 41  42  43  44  45  46  47  48 0
 3-21G
 ****


