%nproc=1
%NoSave
%Mem=1900MB
#P OB98/GEN NMR

erre ene a

0 1
  C      106.919     336.934      83.031
  O      108.178     337.445      82.646
  P      108.448     339.024      82.533
  C      108.511     340.565      80.477
  O      107.869     339.461      81.100
  C      107.945     340.815      79.077
  O      108.512     339.851      78.143
  C      106.418     340.716      78.974
  O      106.016     341.672      77.988
  C      106.217     339.304      78.459
  O      104.934     339.110      77.875
  C      107.411     339.171      77.507
  N      107.719     337.776      77.208
  C      106.741     337.048      76.523
  O      105.650     337.561      76.268
  N      107.001     335.743      76.191
  C      108.098     335.184      76.603
  N      108.302     333.889      76.240
  C      109.095     335.878      77.434
  C      108.853     337.165      77.684
  O      109.850     339.449      82.802
  O      107.382     339.659      83.544
  H      104.824     338.153      77.684
  H      107.690     339.554      84.480
  H      109.967     335.357      77.799
  H      109.529     337.760      78.285
  H      107.206     339.690      76.558
  H      106.313     338.590      79.290
  H      105.901     340.896      79.922
  H      108.278     341.810      78.753
  H      107.598     333.454      75.655
  H      109.574     340.332      80.389
  H      109.156     333.390      76.436
  H      108.411     341.457      81.102
  P      104.539     342.291      77.979
  C      102.239     341.619      77.080
  O      103.609     341.275      77.167
  O      104.454     343.715      77.536
  O      104.030     342.119      79.493
  H      103.253     342.691      79.638
  H      101.771     341.028      76.287
  H      102.116     342.683      76.852
  H      101.744     341.394      78.030
  H      106.956     335.865      83.042
  H      106.174     337.258      82.334
  H      106.672     337.292      84.009

 3  4  5  6  7  8  9  10  11  12  13  23  27  28  29  30  32 0
 6-311+G(2d,p)
 ****
 34  35 0
 6-311+G(2d,p)
 ****
 1  2  14  15  16  17  18  19  20  21  22  24  25  26 0
 3-21G
 ****
 31  33  36  37  38  39  40  41  42  43  44  45  46 0
 3-21G
 ****


