%nproc=1
%NoSave
%Mem=1900MB
#P OB98/GEN NMR

erre ene a

0 1
  C      477.577    -308.792      -7.126
  O      476.608    -309.193      -8.102
  P      476.970    -309.412      -9.649
  C      478.947    -310.893     -10.398
  O      477.637    -310.856      -9.838
  C      479.361    -312.318     -10.776
  O      479.357    -313.171      -9.617
  C      478.449    -313.001     -11.787
  O      478.675    -312.510     -13.094
  C      478.828    -314.464     -11.579
  O      480.021    -314.799     -12.308
  C      479.083    -314.516     -10.059
  N      477.967    -315.100      -9.326
  C      477.986    -316.489      -9.162
  O      478.879    -317.164      -9.672
  N      476.976    -317.080      -8.444
  C      475.997    -316.358      -7.993
  N      475.028    -316.996      -7.283
  C      475.891    -314.905      -8.222
  C      476.902    -314.351      -8.888
  O      477.759    -308.294     -10.254
  O      475.556    -309.556     -10.390
  H      480.272    -315.700     -12.027
  H      475.634    -309.211     -11.299
  H      475.045    -314.345      -7.855
  H      476.909    -313.284      -9.092
  H      479.986    -315.095      -9.841
  H      478.043    -315.152     -11.910
  H      477.401    -312.852     -11.501
  H      480.393    -312.276     -11.157
  H      475.132    -317.993      -7.138
  H      479.648    -310.498      -9.652
  H      474.225    -316.530      -6.890
  H      478.971    -310.243     -11.279
  P      478.031    -311.113     -13.544
  C      478.847    -308.680     -13.612
  O      479.220    -310.048     -13.651
  O      476.845    -310.668     -12.757
  O      477.639    -311.355     -15.080
  H      476.850    -310.823     -15.291
  H      479.709    -308.090     -13.291
  H      478.022    -308.515     -12.914
  H      478.548    -308.361     -14.615
  H      477.106    -308.711      -6.169
  H      477.990    -307.844      -7.402
  H      478.358    -309.522      -7.078

 3  4  5  6  7  8  9  10  11  12  13  23  27  28  29  30  32 0
 6-311+G(2d,p)
 ****
 34  35 0
 6-311+G(2d,p)
 ****
 1  2  14  15  16  17  18  19  20  21  22  24  25  26 0
 3-21G
 ****
 31  33  36  37  38  39  40  41  42  43  44  45  46 0
 3-21G
 ****


