%nproc=1
%NoSave
%Mem=1900MB
#P OB98/GEN NMR

erre ene a

0 1
  C        6.753      33.980      67.867
  O        6.649      32.585      68.074
  H        7.295      34.158      66.936
  H        7.302      34.441      68.692
  H        5.757      34.427      67.788
  P        5.844      32.115      69.379
  C        7.854      31.322      70.837
  O        6.856      32.305      70.610
  C        8.604      31.621      72.141
  O        7.673      31.486      73.255
  C        9.772      30.658      72.414
  O       10.777      31.362      73.164
  C        9.115      29.621      73.308
  O       10.091      28.859      73.978
  C        8.252      30.535      74.170
  N        7.303      27.556      78.197
  C        8.424      28.182      77.784
  N        8.594      28.969      76.701
  C        7.438      29.102      76.029
  C        6.217      28.522      76.325
  C        6.172      27.707      77.468
  N        5.038      27.046      77.881
  N        5.271      28.875      75.379
  C        5.911      29.657      74.533
  N        7.220      29.823      74.888
  O        5.755      30.527      69.201
  O        4.502      32.734      69.568
  H        9.691      28.078      74.413
  H        4.923      30.289      68.752
  H        9.303      28.033      78.405
  H        5.483      30.117      73.653
  H        8.842      31.092      74.908
  H        8.501      28.930      72.725
  H       10.215      30.244      71.505
  H        8.939      32.664      72.132
  H        8.551      31.332      69.994
  H        7.385      30.336      70.907
  H        5.098      26.459      78.696
  H        4.196      27.121      77.328
  P       12.324      31.139      72.795
  C       12.551      29.152      74.470
  O       12.778      29.644      73.160
  O       13.063      32.002      73.926
  O       12.735      31.613      71.439
  H       13.767      32.542      73.522
  H       12.911      28.147      74.541
  H       11.502      29.171      74.681
  H       13.068      29.767      75.177

 6  7  8  9  10  11  12  13  14  15  25  28  32  33  34  35 0
 6-311+G(2d,p)
 ****
 36  37  40 0
 6-311+G(2d,p)
 ****
 1  2  3  4  5  16  17  18  19  20  21  22  23  24 0
 3-21G
 ****
 26  27  29  30  31  38  39 41  42  43  44  45  46  47  48 0
 3-21G
 ****


