%nproc=1
%NoSave
%Mem=1900MB
#P OB98/GEN NMR

erre ene a

0 1
  C      482.543    -567.039     568.112
  O      482.218    -565.801     568.738
  P      480.753    -565.176     568.809
  C      481.291    -563.594     566.788
  O      480.411    -564.539     567.382
  C      480.822    -563.136     565.399
  O      479.475    -562.599     565.484
  C      481.705    -561.987     564.883
  O      482.936    -562.277     564.254
  C      480.764    -561.117     564.062
  O      480.798    -561.437     562.669
  C      479.388    -561.428     564.654
  N      475.676    -557.933     565.094
  C      475.891    -558.856     564.096
  N      475.040    -558.808     563.047
  N      476.858    -559.730     564.110
  C      477.693    -559.602     565.173
  C      477.597    -558.714     566.217
  C      476.484    -557.783     566.222
  O      476.236    -556.959     567.091
  N      478.644    -558.862     567.100
  C      479.364    -559.827     566.575
  N      478.842    -560.305     565.404
  O      480.471    -564.335     570.008
  O      479.797    -566.476     568.888
  H      480.401    -562.311     562.551
  H      479.024    -566.221     569.433
  H      474.901    -557.290     565.044
  H      480.286    -560.206     566.994
  H      478.664    -561.657     563.862
  H      481.051    -560.060     564.141
  H      474.345    -558.096     562.923
  H      481.979    -561.371     565.763
  H      475.311    -559.341     562.220
  H      480.765    -563.972     564.705
  H      482.273    -564.067     566.724
  H      481.395    -562.724     567.444
  P      484.390    -562.066     564.886
  C      485.028    -560.469     562.996
  O      484.956    -560.658     564.399
  O      485.307    -563.112     564.086
  O      484.481    -562.307     566.363
  H      486.154    -563.254     564.563
  H      485.694    -559.624     562.780
  H      484.043    -560.237     562.597
  H      485.423    -561.364     562.504
  H      483.593    -567.222     568.208
  H      482.282    -566.994     567.075
  H      481.998    -567.831     568.583

 3  4  5  6  7  8  9  10  11  12  23  26  30  31 0
 6-311+G(2d,p)
 ****
 33  35  36  37  38 0
 6-311+G(2d,p)
 ****
 1  2  13  14  15  16  17  18  19  20  21  22  24  25 0
 3-21G
 ****
 27  28  29  32  34  39  40  41  42  43  44  45  46  47  48  49 0
 3-21G
 ****


