%nproc=1
%NoSave
%Mem=1900MB
#P OB98/GEN NMR

erre ene a

0 1
  C     -475.612    -897.110      62.159
  O     -476.392    -897.360      63.306
  H     -476.251    -896.650      61.396
  H     -475.213    -898.050      61.760
  H     -474.793    -896.420      62.378
  P     -475.653    -897.730      64.680
  C     -476.775    -896.300      66.516
  O     -476.735    -897.560      65.855
  C     -477.939    -896.250      67.512
  O     -479.187    -896.110      66.772
  C     -478.040    -897.540      68.330
  O     -478.633    -897.330      69.608
  C     -478.990    -898.390      67.492
  O     -479.653    -899.400      68.237
  C     -479.938    -897.330      66.941
  N     -484.060    -897.070      63.929
  C     -483.932    -896.730      65.269
  N     -485.037    -896.250      65.884
  N     -482.814    -896.860      65.944
  C     -481.805    -897.430      65.221
  C     -481.839    -897.830      63.915
  C     -483.055    -897.630      63.162
  O     -483.228    -897.950      61.991
  N     -480.627    -898.360      63.531
  C     -479.874    -898.290      64.604
  N     -480.536    -897.700      65.654
  O     -474.673    -896.480      64.927
  O     -474.901    -899.020      64.690
  H     -478.971    -900.000      68.603
  H     -473.946    -896.730      65.508
  H     -484.934    -896.910      63.465
  H     -478.843    -898.610      64.682
  H     -480.751    -897.120      67.624
  H     -478.405    -898.890      66.706
  H     -485.952    -896.320      65.458
  H     -477.081    -898.040      68.454
  H     -485.038    -896.280      66.907
  H     -477.846    -895.360      68.150
  H     -476.887    -895.530      65.748
  H     -475.827    -896.100      67.029
  P     -478.308    -898.380      70.778
  C     -479.158    -897.270      73.028
  O     -479.349    -898.190      71.980
  O     -476.929    -897.870      71.384
  O     -478.235    -899.800      70.313
  H     -476.229    -898.530      71.230
  H     -479.983    -897.326      73.707
  H     -479.093    -896.280      72.626
  H     -478.253    -897.504      73.548

 6  7  8  9  10  11  12  13  14  15  26  29  33  34 0
 6-311+G(2d,p)
 ****
 36  38  39  40  41 0
 6-311+G(2d,p)
 ****
 1  2  3  4  5  16  17  18  19  20  21  22  23  24  25 0
 3-21G
 ****
 27  28  30  31  32  35  37  42  43  44  45  46  47 0
 3-21G
 ****
 48  49 0
 3-21G
 ****


