%nproc=1
%NoSave
%Mem=1900MB
#P OB98/GEN NMR

erre ene a

0 1
  C     -618.395    -899.170    -409.682
  O     -618.969    -897.960    -409.226
  H     -619.062    -900.000    -409.408
  H     -617.420    -899.340    -409.220
  H     -618.296    -899.150    -410.769
  P     -618.112    -896.610    -409.360
  C     -620.157    -895.500    -410.481
  O     -618.760    -895.790    -410.582
  C     -620.487    -894.190    -411.213
  O     -620.046    -893.080    -410.373
  C     -619.803    -894.050    -412.584
  O     -620.712    -893.400    -413.467
  C     -618.624    -893.150    -412.270
  O     -618.166    -892.470    -413.420
  C     -619.157    -892.260    -411.147
  N     -618.080    -891.680    -410.346
  C     -617.380    -890.630    -410.917
  O     -617.673    -890.190    -412.038
  N     -616.297    -890.110    -410.229
  C     -615.924    -890.640    -409.108
  N     -614.841    -890.110    -408.516
  C     -616.635    -891.790    -408.485
  C     -617.689    -892.240    -409.139
  O     -616.633    -896.780    -409.426
  O     -618.549    -895.760    -408.070
  H     -617.589    -891.730    -413.148
  H     -617.945    -895.950    -407.323
  H     -616.290    -892.200    -407.549
  H     -618.285    -893.100    -408.780
  H     -619.747    -891.440    -411.576
  H     -617.781    -893.770    -411.882
  H     -619.474    -895.020    -412.995
  H     -621.570    -894.110    -411.304
  H     -614.360    -889.340    -408.978
  H     -620.392    -895.410    -409.421
  H     -614.429    -890.480    -407.639
  H     -620.732    -896.320    -410.922
  P     -622.229    -893.900    -413.589
  C     -623.681    -891.830    -413.217
  O     -623.151    -893.010    -412.610
  O     -622.417    -895.380    -413.455
  O     -622.674    -893.420    -415.060
  H     -623.335    -894.030    -415.413
  H     -624.277    -891.299    -412.504
  H     -624.286    -892.102    -414.057
  H     -622.876    -891.205    -413.544

 6  7  8  9  10  11  12  13  14  15  16  26  30  31  32  33  35 0
 6-311+G(2d,p)
 ****
 37  38 0
 6-311+G(2d,p)
 ****
 1  2  3  4  5  17  18  19  20  21  22  23  24  25 0
 3-21G
 ****
 27  28  29  34  36  39  40  41  42  43  44  45  46 0
 3-21G
 ****


