%nproc=1
%NoSave
%Mem=1900MB
#P OB98/GEN NMR

erre ene a

0 1
  C     -376.395    -161.680     -49.321
  O     -375.293    -162.472     -48.917
  H     -376.657    -161.943     -50.346
  H     -376.121    -160.623     -49.289
  H     -377.264    -161.860     -48.682
  P     -374.887    -162.499     -47.367
  C     -375.152    -165.060     -47.325
  O     -375.543    -163.830     -46.750
  C     -376.196    -166.156     -47.042
  O     -377.522    -165.612     -47.292
  C     -376.042    -167.410     -47.919
  O     -376.494    -168.530     -47.152
  C     -377.007    -167.115     -49.052
  O     -377.341    -168.281     -49.774
  C     -378.153    -166.446     -48.277
  N     -379.047    -165.685     -49.151
  C     -379.973    -166.425     -49.888
  O     -380.027    -167.652     -49.861
  N     -380.800    -165.706     -50.721
  C     -380.750    -164.357     -50.908
  O     -381.497    -163.770     -51.682
  C     -379.732    -163.634     -50.137
  C     -378.939    -164.322     -49.298
  O     -375.164    -161.245     -46.600
  O     -373.324    -162.858     -47.378
  H     -377.858    -168.046     -50.571
  H     -372.881    -162.450     -46.598
  H     -381.470    -166.219     -51.251
  H     -379.661    -162.558     -50.271
  H     -378.181    -163.816     -48.715
  H     -378.749    -167.196     -47.756
  H     -376.568    -166.405     -49.768
  H     -375.020    -167.570     -48.268
  H     -376.148    -166.415     -45.984
  H     -374.189    -165.350     -46.891
  H     -375.028    -164.949     -48.408
  P     -375.537    -169.315     -46.131
  C     -376.906    -168.550     -44.091
  O     -375.619    -168.596     -44.698
  O     -374.141    -169.522     -46.632
  O     -376.267    -170.719     -45.887
  H     -375.605    -171.397     -45.659
  H     -376.837    -168.051     -43.147
  H     -377.266    -169.547     -43.942
  H     -377.582    -168.018     -44.727

 6  7  8  9  10  11  12  13  14  15  16  26  31  32  33  34  35 0
 6-311+G(2d,p)
 ****
 36  37 0
 6-311+G(2d,p)
 ****
 1  2  3  4  5  17  18  19  20  21  22  23  24  25 0
 3-21G
 ****
 27  28  29  30  38  39  40  41  42  43  44  45 0
 3-21G
 ****


