%nproc=1
%NoSave
%Mem=1900MB
#P OB98/GEN NMR

erre ene a

0 1
  C     -160.400     -12.697      66.144
  O     -161.259     -11.894      66.924
  H     -159.659     -12.050      65.666
  H     -160.973     -13.208      65.366
  H     -159.876     -13.431      66.760
  P     -162.230     -12.604      67.982
  C     -164.296     -14.147      67.845
  O     -163.445     -13.246      67.151
  C     -165.327     -14.763      66.891
  O     -166.316     -13.756      66.551
  C     -164.677     -15.213      65.575
  O     -165.381     -16.297      64.972
  C     -164.817     -13.982      64.694
  O     -164.764     -14.282      63.299
  C     -166.163     -13.427      65.157
  N     -165.490      -9.456      62.028
  C     -165.046     -10.758      61.897
  N     -164.326     -11.034      60.781
  N     -165.262     -11.691      62.785
  C     -165.929     -11.253      63.880
  C     -166.404      -9.984      64.137
  C     -166.186      -8.967      63.129
  O     -166.541      -7.794      63.207
  N     -167.023      -9.917      65.361
  C     -166.921     -11.138      65.846
  N     -166.288     -11.993      64.974
  O     -162.938     -11.374      68.730
  O     -161.561     -13.528      68.954
  H     -163.908     -14.717      63.127
  H     -163.272     -11.654      69.602
  H     -165.322      -8.783      61.301
  H     -167.302     -11.462      66.809
  H     -166.985     -13.902      64.609
  H     -163.981     -13.310      64.910
  H     -163.974     -10.307      60.181
  H     -163.633     -15.492      65.696
  H     -163.740     -11.874      60.819
  H     -165.865     -15.577      67.392
  H     -164.794     -13.575      68.631
  H     -163.708     -14.924      68.334
  P     -164.725     -17.758      65.018
  C     -162.803     -19.011      63.693
  O     -163.720     -17.943      63.789
  O     -165.941     -18.733      64.668
  O     -164.086     -18.107      66.329
  H     -166.147     -19.307      65.430
  H     -162.243     -18.920      62.786
  H     -163.335     -19.939      63.691
  H     -162.135     -18.984      64.529

 6  7  8  9  10  11  12  13  14  15  26  29  33  34 0
 6-311+G(2d,p)
 ****
 36  38  39  40  41 0
 6-311+G(2d,p)
 ****
 1  2  3  4  5  16  17  18  19  20  21  22  23  24  25 0
 3-21G
 ****
 27  28  30  31  32  35  37  42  43  44  45  46  47 0
 3-21G
 ****
 48  49 0
 3-21G
 ****


