%nproc=1
%NoSave
%Mem=1900MB
#P OB98/GEN NMR

erre ene a

0 1
  C      348.497    -867.714    1214.614
  O      348.444    -866.295    1214.823
  P      349.703    -865.431    1215.278
  C      348.964    -863.169    1214.259
  O      349.279    -863.901    1215.443
  C      348.616    -861.714    1214.562
  O      347.267    -861.585    1214.987
  C      349.459    -861.071    1215.664
  O      350.765    -860.761    1215.178
  C      348.610    -859.862    1216.021
  O      348.830    -858.774    1215.099
  C      347.168    -860.439    1215.848
  N      346.553    -860.764    1217.128
  C      345.931    -859.723    1217.813
  O      345.977    -858.570    1217.352
  N      345.294    -860.000    1219.003
  C      345.347    -861.190    1219.516
  N      344.691    -861.408    1220.682
  C      346.079    -862.305    1218.864
  C      346.646    -862.016    1217.681
  O      350.927    -865.626    1214.420
  O      350.015    -865.903    1216.797
  H      349.696    -858.391    1215.318
  H      350.971    -865.835    1216.965
  H      346.118    -863.301    1219.333
  H      347.178    -862.779    1217.144
  H      346.520    -859.712    1215.322
  H      348.808    -859.487    1217.023
  H      349.516    -861.756    1216.518
  H      348.741    -861.155    1213.613
  H      344.221    -860.617    1221.092
  H      348.095    -863.668    1213.779
  H      344.674    -862.292    1221.150
  H      349.823    -863.247    1213.574
  P      352.020    -860.852    1216.186
  C      353.575    -862.182    1214.616
  O      353.336    -860.936    1215.275
  O      351.915    -861.888    1217.252
  O      352.116    -859.364    1216.809
  H      352.471    -859.444    1217.707
  H      354.252    -862.000    1213.773
  H      352.644    -862.620    1214.260
  H      354.075    -862.863    1215.319
  H      347.532    -868.067    1214.314
  H      348.787    -868.198    1215.523
  H      349.212    -867.935    1213.849

 3  4  5  6  7  8  9  10  11  12  13  23  27  28  29  30  32 0
 6-311+G(2d,p)
 ****
 34  35 0
 6-311+G(2d,p)
 ****
 1  2  14  15  16  17  18  19  20  21  22  24  25  26 0
 3-21G
 ****
 31  33  36  37  38  39  40  41  42  43  44  45  46 0
 3-21G
 ****


