%nproc=1
%NoSave
%Mem=1900MB
#P OB98/GEN NMR

erre ene a

0 1
  C      377.183    -489.011    -750.743
  O      377.097    -489.667    -751.990
  H      376.246    -488.474    -750.563
  H      378.006    -488.289    -750.759
  H      377.340    -489.734    -749.942
  P      378.366    -490.536    -752.438
  C      380.895    -490.083    -752.025
  O      379.629    -489.545    -752.395
  C      381.944    -488.979    -752.037
  O      381.749    -488.110    -750.888
  C      383.378    -489.481    -751.922
  O      383.876    -489.974    -753.156
  C      384.093    -488.226    -751.443
  O      384.425    -487.364    -752.534
  C      383.046    -487.568    -750.531
  N      385.430    -485.736    -746.412
  C      385.265    -485.236    -747.659
  N      384.602    -485.784    -748.703
  C      384.052    -486.959    -748.341
  C      384.125    -487.589    -747.113
  C      384.862    -486.921    -746.113
  N      385.044    -487.445    -744.852
  N      383.464    -488.804    -747.144
  C      382.993    -488.893    -748.368
  N      383.317    -487.805    -749.128
  O      378.118    -490.766    -754.006
  O      378.544    -491.825    -751.710
  H      384.816    -486.559    -752.135
  H      377.747    -491.661    -754.149
  H      385.742    -484.273    -747.847
  H      382.411    -489.729    -748.754
  H      382.995    -486.485    -750.680
  H      385.021    -488.485    -750.928
  H      383.441    -490.255    -751.139
  H      381.813    -488.368    -752.946
  H      381.187    -490.859    -752.747
  H      380.815    -490.530    -751.025
  H      385.638    -486.945    -744.207
  H      384.723    -488.377    -744.651
  P      385.321    -490.659    -753.155
  C      387.572    -489.933    -752.047
  O      386.373    -489.538    -752.714
  O      385.642    -490.887    -754.700
  O      385.407    -491.933    -752.370
  H      386.149    -491.720    -754.823
  H      388.159    -489.066    -751.825
  H      388.132    -490.590    -752.679
  H      387.324    -490.439    -751.137

 6  7  8  9  10  11  12  13  14  15  25  28  32  33  34  35 0
 6-311+G(2d,p)
 ****
 36  37  40 0
 6-311+G(2d,p)
 ****
 1  2  3  4  5  16  17  18  19  20  21  22  23  24 0
 3-21G
 ****
 26  27  29  30  31  38  39 41  42  43  44  45  46  47  48 0
 3-21G
 ****


