%nproc=1
%NoSave
%Mem=1900MB
#P OB98/GEN NMR

erre ene a

0 1
  C       -7.438      35.693     -50.625
  O       -7.250      34.558     -49.806
  H       -8.379      35.583     -51.168
  H       -6.622      35.778     -51.348
  H       -7.487      36.596     -50.011
  P       -5.888      34.491     -48.960
  C       -5.143      32.372     -50.264
  O       -4.826      33.697     -49.863
  C       -4.132      31.897     -51.302
  O       -4.027      32.868     -52.367
  C       -2.719      31.733     -50.762
  O       -2.559      30.530     -50.030
  C       -1.914      31.749     -52.051
  O       -1.880      30.452     -52.667
  C       -2.700      32.755     -52.920
  N       -2.030      34.048     -53.006
  C       -1.078      34.169     -54.014
  O       -0.802      33.257     -54.792
  N       -0.421      35.366     -54.075
  C       -0.592      36.417     -53.222
  O        0.082      37.437     -53.286
  C       -1.622      36.238     -52.185
  C       -2.277      35.076     -52.119
  O       -6.240      33.460     -47.788
  O       -5.407      35.801     -48.433
  H       -6.410      33.944     -46.959
  H       -1.428      29.862     -52.033
  H        0.280      35.469     -54.791
  H       -1.787      37.055     -51.495
  H       -3.026      34.914     -51.350
  H       -2.817      32.367     -53.940
  H       -0.880      32.042     -51.874
  H       -2.439      32.605     -50.159
  H       -4.494      30.953     -51.732
  H       -6.144      32.354     -50.707
  H       -5.135      31.722     -49.384
  P       -1.967      30.612     -48.542
  C        0.396      30.188     -49.607
  O       -0.400      30.916     -48.691
  O       -2.028      29.078     -48.100
  O       -2.706      31.555     -47.654
  H       -1.843      28.464     -48.830
  H        1.406      30.537     -49.557
  H        0.018      30.329     -50.598
  H        0.365      29.148     -49.358

 6  7  8  9  10  11  12  13  14  15  16  27  31  32  33  34  35 0
 6-311+G(2d,p)
 ****
 36  37 0
 6-311+G(2d,p)
 ****
 1  2  3  4  5  17  18  19  20  21  22  23  24  25 0
 3-21G
 ****
 26  28  29  30  38  39  40  41  42  43  44  45 0
 3-21G
 ****


