%nproc=1
%NoSave
%Mem=1900MB
#P OB98/GEN NMR

erre ene a

0 1
  C      141.514     114.602    -190.578
  O      142.135     114.284    -191.806
  H      140.699     113.895    -190.406
  H      141.099     115.614    -190.604
  H      142.230     114.514    -189.756
  P      143.296     115.253    -192.345
  C      144.415     113.180    -193.424
  O      143.889     114.482    -193.627
  C      144.361     112.380    -194.724
  O      143.014     111.954    -195.013
  C      144.800     113.147    -195.967
  O      146.203     113.336    -196.048
  C      144.274     112.219    -197.049
  O      145.140     111.075    -197.164
  C      142.901     111.816    -196.458
  N      141.800     112.632    -196.965
  C      140.949     112.029    -197.899
  O      141.139     110.868    -198.259
  N      139.921     112.767    -198.433
  C      139.768     114.005    -198.081
  N      138.763     114.707    -198.677
  C      140.629     114.676    -197.089
  C      141.617     113.943    -196.580
  O      144.309     115.696    -191.340
  O      142.512     116.466    -193.035
  H      144.710     110.452    -197.777
  H      143.188     117.101    -193.376
  H      140.462     115.713    -196.836
  H      142.303     114.371    -195.857
  H      142.683     110.762    -196.664
  H      144.223     112.689    -198.035
  H      144.272     114.104    -196.042
  H      144.961     111.473    -194.578
  H      138.221     114.227    -199.382
  H      143.829     112.693    -192.639
  H      138.753     115.721    -198.670
  H      145.459     113.242    -193.102
  P      146.741     114.789    -196.475
  C      148.647     114.855    -194.699
  O      148.294     114.839    -196.073
  O      146.043     115.754    -195.411
  O      146.464     115.194    -197.888
  H      145.208     116.120    -195.761
  H      149.712     114.889    -194.605
  H      148.275     113.971    -194.225
  H      148.220     115.717    -194.231

 6  7  8  9  10  11  12  13  14  15  16  26  30  31  32  33  35 0
 6-311+G(2d,p)
 ****
 37  38 0
 6-311+G(2d,p)
 ****
 1  2  3  4  5  17  18  19  20  21  22  23  24  25 0
 3-21G
 ****
 27  28  29  34  36  39  40  41  42  43  44  45  46 0
 3-21G
 ****


