%nproc=1
%NoSave
%Mem=1900MB
#P OB98/GEN NMR

erre ene a

0 1
  C      -31.524     176.961      26.791
  O      -32.620     176.766      27.669
  P      -33.777     177.879      27.673
  C      -34.824     176.856      25.528
  O      -34.303     178.015      26.163
  C      -36.212     177.131      24.945
  O      -36.625     175.981      24.155
  C      -37.306     177.384      25.994
  O      -38.204     178.345      25.429
  C      -37.960     176.018      26.105
  O      -39.241     176.039      26.712
  C      -37.923     175.579      24.645
  N      -40.900     171.597      25.832
  C      -41.016     172.918      26.096
  N      -40.188     173.921      25.739
  C      -39.150     173.448      25.028
  C      -38.888     172.130      24.698
  C      -39.823     171.176      25.131
  N      -39.697     169.826      24.868
  N      -37.714     172.026      23.983
  C      -37.271     173.262      23.884
  N      -38.115     174.157      24.481
  O      -32.968     179.240      27.903
  O      -34.843     177.679      28.706
  H      -39.808     176.701      26.271
  H      -33.458     179.846      28.491
  H      -41.892     173.208      26.670
  H      -36.347     173.559      23.408
  H      -38.682     176.092      24.042
  H      -37.326     175.369      26.720
  H      -36.918     177.770      26.941
  H      -36.137     177.986      24.262
  H      -34.915     176.050      26.263
  H      -40.305     169.210      25.388
  H      -38.797     169.505      24.532
  H      -34.129     176.526      24.750
  P      -39.113     179.229      26.412
  C      -37.152     180.830      25.975
  O      -38.126     180.397      26.905
  O      -39.167     178.286      27.706
  O      -40.445     179.635      25.882
  H      -38.277     177.997      27.976
  H      -36.620     181.685      26.401
  H      -37.629     181.138      25.041
  H      -36.435     180.027      25.784
  H      -30.836     176.148      26.894
  H      -31.031     177.879      27.034
  H      -31.878     177.003      25.782

 3  4  5  6  7  8  9  10  11  12  22  25  29  30  31  32 0
 6-311+G(2d,p)
 ****
 33  36  37 0
 6-311+G(2d,p)
 ****
 1  2  13  14  15  16  17  18  19  20  21  23  24  26 0
 3-21G
 ****
 27  28  34  35  38  39  40  41  42  43  44  45  46  47  48 0
 3-21G
 ****


