%nproc=1
%NoSave
%Mem=1900MB
#P OB98/GEN NMR

erre ene a

0 1
  C      431.214    -422.873    -396.369
  O      432.410    -422.323    -396.881
  H      431.028    -423.828    -396.866
  H      430.380    -422.198    -396.567
  H      431.303    -423.046    -395.292
  P      432.927    -420.959    -396.217
  C      435.235    -421.802    -397.049
  O      434.388    -420.677    -396.813
  C      436.598    -421.351    -397.564
  O      436.414    -420.595    -398.797
  C      437.380    -420.464    -396.587
  O      438.776    -420.768    -396.730
  C      437.144    -419.059    -397.137
  O      438.140    -418.129    -396.717
  C      437.149    -419.360    -398.638
  N      437.617    -414.485    -399.779
  C      438.413    -415.299    -399.002
  N      439.506    -414.740    -398.443
  N      438.163    -416.570    -398.798
  C      437.052    -417.012    -399.444
  C      436.185    -416.300    -400.232
  C      436.459    -414.892    -400.432
  O      435.780    -414.106    -401.086
  N      435.166    -417.102    -400.683
  C      435.422    -418.286    -400.169
  N      436.560    -418.287    -399.406
  O      433.212    -421.389    -394.705
  O      431.977    -419.805    -396.301
  H      438.034    -417.999    -395.746
  H      432.431    -421.209    -394.144
  H      437.856    -413.508    -399.892
  H      434.821    -419.182    -400.315
  H      438.162    -419.519    -399.033
  H      436.167    -418.694    -396.812
  H      439.790    -413.783    -398.594
  H      437.085    -420.568    -395.541
  H      440.129    -415.336    -397.905
  H      437.178    -422.247    -397.833
  H      434.758    -422.453    -397.798
  H      435.347    -422.359    -396.112
  P      439.363    -422.009    -395.905
  C      439.924    -423.991    -397.493
  O      440.378    -422.808    -396.859
  O      438.108    -423.003    -395.812
  O      439.889    -421.663    -394.553
  H      438.177    -423.551    -395.011
  H      440.712    -424.401    -398.089
  H      439.086    -423.762    -398.118
  H      439.630    -424.703    -396.751

 6  7  8  9  10  11  12  13  14  15  26  29  33  34 0
 6-311+G(2d,p)
 ****
 36  38  39  40  41 0
 6-311+G(2d,p)
 ****
 1  2  3  4  5  16  17  18  19  20  21  22  23  24  25 0
 3-21G
 ****
 27  28  30  31  32  35  37  42  43  44  45  46  47 0
 3-21G
 ****
 48  49 0
 3-21G
 ****


