%nproc=1
%NoSave
%Mem=1900MB
#P OB98/GEN NMR

erre ene a

0 1
  C      -13.113    -333.067    -276.937
  O      -14.255    -333.486    -277.652
  H      -12.312    -332.856    -277.651
  H      -12.787    -333.865    -276.264
  H      -13.317    -332.161    -276.357
  P      -15.681    -333.436    -276.927
  C      -15.830    -335.983    -276.531
  O      -15.769    -334.696    -275.932
  C      -16.004    -337.092    -275.495
  O      -16.234    -338.361    -276.149
  C      -14.755    -337.282    -274.631
  O      -14.643    -336.408    -273.520
  C      -14.906    -338.731    -274.172
  O      -15.733    -338.814    -273.003
  C      -15.603    -339.392    -275.365
  N      -13.799    -343.994    -276.682
  C      -14.713    -343.665    -275.695
  N      -15.154    -344.687    -274.928
  N      -15.132    -342.448    -275.479
  C      -14.532    -341.519    -276.260
  C      -13.603    -341.717    -277.264
  C      -13.187    -343.084    -277.531
  O      -12.373    -343.427    -278.385
  N      -13.223    -340.533    -277.843
  C      -13.862    -339.612    -277.148
  N      -14.687    -340.164    -276.193
  O      -16.712    -333.842    -278.089
  O      -16.047    -332.115    -276.322
  H      -15.260    -338.397    -272.259
  H      -17.587    -333.457    -277.906
  H      -13.533    -344.955    -276.821
  H      -13.782    -338.542    -277.311
  H      -16.397    -340.080    -275.047
  H      -13.944    -339.177    -273.912
  H      -14.773    -345.620    -274.979
  H      -13.851    -337.212    -275.250
  H      -15.608    -344.453    -274.039
  H      -16.891    -336.880    -274.885
  H      -14.890    -336.123    -277.074
  H      -16.638    -336.020    -277.270
  P      -13.358    -335.469    -273.369
  C      -11.873    -337.271    -272.210
  O      -12.077    -336.432    -273.325
  O      -13.484    -334.939    -271.861
  O      -13.278    -334.344    -274.347
  H      -13.901    -334.059    -271.844
  H      -10.977    -337.839    -272.350
  H      -12.705    -337.936    -272.107
  H      -11.783    -336.674    -271.326

 6  7  8  9  10  11  12  13  14  15  26  29  33  34 0
 6-311+G(2d,p)
 ****
 36  38  39  40  41 0
 6-311+G(2d,p)
 ****
 1  2  3  4  5  16  17  18  19  20  21  22  23  24  25 0
 3-21G
 ****
 27  28  30  31  32  35  37  42  43  44  45  46  47 0
 3-21G
 ****
 48  49 0
 3-21G
 ****


