%nproc=1
%NoSave
%Mem=1900MB
#P OB98/GEN NMR

erre ene a

0 1
  C       43.771      42.213      19.626
  O       44.153      42.233      20.983
  H       42.793      42.690      19.531
  H       43.691      41.177      19.283
  H       44.487      42.752      19.000
  P       45.696      42.027      21.352
  C       47.384      40.082      21.168
  O       46.017      40.453      21.299
  C       47.670      38.735      21.831
  O       47.630      38.883      23.268
  C       46.632      37.669      21.469
  O       46.913      36.958      20.275
  C       46.691      36.745      22.683
  O       47.697      35.732      22.520
  C       47.063      37.692      23.830
  N       45.054      40.770      27.385
  C       46.359      40.706      26.930
  N       47.234      41.543      27.527
  N       46.754      39.885      25.993
  C       45.787      39.043      25.563
  C       44.468      38.999      25.953
  C       44.020      39.961      26.937
  O       42.874      40.070      27.360
  N       43.790      37.980      25.327
  C       44.721      37.360      24.629
  N       45.929      38.015      24.678
  O       45.747      42.336      22.926
  O       46.659      42.903      20.611
  H       47.505      35.011      23.151
  H       46.614      42.718      23.155
  H       44.803      41.442      28.087
  H       44.566      36.464      24.038
  H       47.830      37.250      24.480
  H       45.741      36.225      22.823
  H       47.003      42.132      28.310
  H       45.630      38.104      21.421
  H       48.232      41.396      27.358
  H       48.686      38.411      21.571
  H       47.967      40.868      21.649
  H       47.671      40.058      20.113
  P       45.731      36.419      19.344
  C       43.979      34.469      19.488
  O       45.133      35.095      20.004
  O       46.507      35.872      18.057
  O       44.687      37.425      18.985
  H       46.483      36.529      17.336
  H       43.751      33.603      20.074
  H       44.155      34.177      18.474
  H       43.156      35.152      19.525

 6  7  8  9  10  11  12  13  14  15  26  29  33  34 0
 6-311+G(2d,p)
 ****
 36  38  39  40  41 0
 6-311+G(2d,p)
 ****
 1  2  3  4  5  16  17  18  19  20  21  22  23  24  25 0
 3-21G
 ****
 27  28  30  31  32  35  37  42  43  44  45  46  47 0
 3-21G
 ****
 48  49 0
 3-21G
 ****


