%nproc=1
%NoSave
%Mem=1900MB
#P OB98/GEN NMR

erre ene a

0 1
  C      523.575     315.928      41.839
  O      523.754     314.943      40.838
  H      524.027     316.872      41.524
  H      522.501     316.086      41.993
  H      524.024     315.595      42.780
  P      525.264     314.590      40.433
  C      524.451     312.293      39.508
  O      525.141     313.507      39.249
  C      524.447     311.435      38.247
  O      523.588     312.015      37.244
  C      525.830     311.299      37.591
  O      526.638     310.310      38.203
  C      525.429     310.897      36.179
  O      525.062     309.507      36.154
  C      524.194     311.789      35.938
  N      524.213     314.478      31.576
  C      523.776     313.225      31.869
  N      523.789     312.591      33.057
  C      524.303     313.390      34.013
  C      524.786     314.675      33.863
  C      524.731     315.228      32.578
  N      525.209     316.492      32.270
  N      525.258     315.161      35.071
  C      525.054     314.182      35.936
  N      524.510     313.070      35.333
  O      525.795     313.703      41.666
  O      526.150     315.749      40.121
  H      524.402     309.373      36.855
  H      526.775     313.624      41.636
  H      523.365     312.658      31.029
  H      525.296     314.214      36.995
  H      523.443     311.301      35.306
  H      526.246     311.033      35.458
  H      526.343     312.271      37.555
  H      524.047     310.440      38.499
  H      523.416     312.520      39.800
  H      525.257     316.737      31.289
  H      525.723     316.996      32.974
  H      524.947     311.760      40.330
  P      528.214     310.351      37.916
  C      528.466     309.420      40.330
  O      528.905     309.370      38.975
  O      528.638     311.817      38.436
  O      528.596     310.142      36.481
  H      529.375     312.179      37.908
  H      529.019     308.711      40.910
  H      527.423     309.184      40.376
  H      528.626     310.403      40.721

 6  7  8  9  10  11  12  13  14  15  25  28  32  33  34  35 0
 6-311+G(2d,p)
 ****
 36  39  40 0
 6-311+G(2d,p)
 ****
 1  2  3  4  5  16  17  18  19  20  21  22  23  24 0
 3-21G
 ****
 26  27  29  30  31  37  38  41  42  43  44  45  46  47 0
 3-21G
 ****
 48 0
 3-21G
 ****


