%nproc=1
%NoSave
%Mem=1900MB
#P OB98/GEN NMR

erre ene a

0 1
  C     -106.882    -159.363     444.833
  O     -105.801    -159.883     444.089
  H     -107.771    -159.968     444.633
  H     -107.083    -158.331     444.533
  H     -106.660    -159.400     445.903
  P     -104.392    -159.130     444.236
  C     -104.444    -157.755     442.035
  O     -103.875    -158.851     442.736
  C     -104.956    -158.208     440.665
  O     -103.931    -159.019     440.022
  C     -106.237    -159.054     440.729
  O     -107.068    -158.715     439.615
  C     -105.725    -160.470     440.547
  O     -106.732    -161.352     440.055
  C     -104.572    -160.231     439.578
  N     -103.901    -164.915     437.862
  C     -104.940    -164.030     437.666
  N     -105.968    -164.456     436.895
  N     -104.975    -162.827     438.183
  C     -103.872    -162.525     438.909
  C     -102.778    -163.315     439.188
  C     -102.765    -164.651     438.630
  O     -101.882    -165.491     438.784
  N     -101.885    -162.657     439.992
  C     -102.432    -161.469     440.197
  N     -103.638    -161.344     439.559
  O     -103.407    -160.283     444.758
  O     -104.389    -157.938     445.131
  H     -106.371    -162.263     440.079
  H     -102.696    -159.903     445.313
  H     -103.931    -165.831     437.451
  H     -102.007    -160.676     440.798
  H     -104.910    -160.085     438.550
  H     -105.361    -160.867     441.506
  H     -105.995    -165.351     436.441
  H     -106.800    -158.928     441.657
  H     -106.734    -163.814     436.728
  H     -105.096    -157.324     440.035
  H     -103.679    -156.981     441.900
  H     -105.273    -157.345     442.620
  P     -108.399    -157.866     439.911
  C     -109.945    -159.830     440.627
  O     -109.678    -158.808     439.672
  O     -108.455    -156.844     438.676
  O     -108.372    -157.136     441.216
  H     -108.238    -155.949     438.983
  H     -110.821    -160.370     440.335
  H     -110.102    -159.387     441.588
  H     -109.112    -160.500     440.675

 6  7  8  9  10  11  12  13  14  15  26  29  33  34 0
 6-311+G(2d,p)
 ****
 36  38  39  40  41 0
 6-311+G(2d,p)
 ****
 1  2  3  4  5  16  17  18  19  20  21  22  23  24  25 0
 3-21G
 ****
 27  28  30  31  32  35  37  42  43  44  45  46  47 0
 3-21G
 ****
 48  49 0
 3-21G
 ****


