%nproc=1
%NoSave
%Mem=1900MB
#P OB98/GEN NMR

erre ene a

0 1
  C      432.390     -96.859     -39.006
  O      432.488     -98.088     -39.739
  P      433.699     -98.428     -40.735
  C      434.186    -100.617     -39.440
  O      433.940    -100.014     -40.705
  C      434.560    -102.094     -39.598
  O      433.431    -102.842     -40.117
  C      435.677    -102.377     -40.595
  O      436.950    -102.007     -40.092
  C      435.502    -103.880     -40.817
  O      436.163    -104.641     -39.801
  C      433.973    -104.051     -40.698
  N      433.336    -104.357     -41.966
  C      433.467    -105.665     -42.437
  O      434.168    -106.478     -41.830
  N      432.813    -106.018     -43.594
  C      432.179    -105.114     -44.276
  N      431.535    -105.525     -45.403
  C      432.130    -103.691     -43.886
  C      432.722    -103.388     -42.731
  O      434.935     -97.628     -40.481
  O      433.124     -98.152     -42.206
  H      433.864     -97.933     -42.809
  H      437.116    -104.411     -39.852
  H      431.620    -102.966     -44.499
  H      432.718    -102.364     -42.359
  H      433.744    -104.845     -39.978
  H      435.911    -104.200     -41.783
  H      435.475    -101.841     -41.528
  H      434.818    -102.491     -38.607
  H      431.578    -106.505     -45.637
  H      433.270    -100.544     -38.840
  H      430.993    -104.907     -45.991
  H      434.983    -100.061     -38.927
  P      437.360    -100.459     -40.217
  C      439.033    -100.945     -38.289
  O      438.788    -100.277     -39.516
  O      436.342     -99.721     -39.220
  O      437.263     -99.905     -41.602
  H      436.061     -98.872     -39.613
  H      440.108    -101.126     -38.201
  H      438.504    -101.897     -38.236
  H      438.714    -100.304     -37.463
  H      431.499     -96.867     -38.413
  H      432.356     -96.037     -39.690
  H      433.242     -96.756     -38.367

 3  4  5  6  7  8  9  10  11  12  13  24  27  28  29  30  32 0
 6-311+G(2d,p)
 ****
 34  35 0
 6-311+G(2d,p)
 ****
 1  2  14  15  16  17  18  19  20  21  22  23  25  26 0
 3-21G
 ****
 31  33  36  37  38  39  40  41  42  43  44  45  46 0
 3-21G
 ****


