%nproc=1
%NoSave
%Mem=1900MB
#P OB98/GEN NMR

erre ene a

0 1
  C     -126.726     507.765    -181.947
  O     -127.723     507.523    -180.949
  P     -127.464     507.922    -179.416
  C     -127.311     505.552    -178.459
  O     -126.601     506.760    -178.715
  C     -126.386     504.350    -178.205
  O     -125.623     504.521    -176.982
  C     -127.105     503.000    -178.096
  O     -126.203     502.031    -178.640
  C     -127.245     502.824    -176.596
  O     -127.493     501.476    -176.223
  C     -125.914     503.413    -176.110
  N     -125.968     503.825    -174.709
  C     -126.301     502.841    -173.774
  O     -126.588     501.703    -174.145
  N     -126.344     503.180    -172.445
  C     -126.175     504.418    -172.093
  N     -126.259     504.701    -170.767
  C     -125.907     505.507    -173.058
  C     -125.807     505.136    -174.329
  O     -128.685     508.328    -178.661
  O     -126.425     509.142    -179.512
  H     -128.427     501.255    -176.458
  H     -126.563     509.737    -178.753
  H     -125.798     506.531    -172.724
  H     -125.609     505.859    -175.117
  H     -125.102     502.682    -176.226
  H     -128.082     503.430    -176.231
  H     -128.066     502.971    -178.619
  H     -125.658     504.320    -179.027
  H     -126.470     503.931    -170.140
  H     -127.947     505.335    -179.322
  H     -126.258     505.639    -170.396
  H     -127.965     505.701    -177.596
  P     -126.393     501.420    -180.109
  C     -127.823     499.471    -179.248
  O     -127.773     500.607    -180.095
  O     -125.221     500.647    -180.629
  O     -126.714     502.683    -181.046
  H     -126.566     502.434    -181.977
  H     -128.854     499.135    -179.161
  H     -127.445     499.719    -178.246
  H     -127.217     498.668    -179.672
  H     -127.085     507.432    -182.898
  H     -125.833     507.231    -181.696
  H     -126.514     508.813    -181.993

 3  4  5  6  7  8  9  10  11  12  13  23  27  28  29  30  32 0
 6-311+G(2d,p)
 ****
 34  35 0
 6-311+G(2d,p)
 ****
 1  2  14  15  16  17  18  19  20  21  22  24  25  26 0
 3-21G
 ****
 31  33  36  37  38  39  40  41  42  43  44  45  46 0
 3-21G
 ****


