%nproc=1
%NoSave
%Mem=1900MB
#P OB98/GEN NMR

erre ene a

0 1
  C     -464.427     269.140     319.823
  O     -465.829     269.020     319.985
  H     -464.145     270.185     319.971
  H     -464.142     268.839     318.811
  H     -463.901     268.523     320.559
  P     -466.427     267.529     319.982
  C     -466.002     266.891     322.494
  O     -466.924     267.262     321.484
  C     -466.421     265.579     323.156
  O     -465.366     265.150     324.054
  C     -467.714     265.686     323.971
  O     -468.433     264.458     323.842
  C     -467.217     265.833     325.399
  O     -468.199     265.433     326.351
  C     -465.945     264.966     325.365
  N     -465.004     265.315     326.424
  C     -465.002     264.488     327.557
  O     -465.773     263.535     327.629
  N     -464.154     264.788     328.592
  C     -463.420     265.858     328.536
  N     -462.620     266.110     329.607
  C     -463.423     266.777     327.384
  C     -464.222     266.446     326.370
  O     -465.101     266.643     319.852
  O     -467.445     267.275     318.921
  H     -468.475     264.512     326.146
  H     -464.380     266.940     320.433
  H     -462.804     267.665     327.388
  H     -464.282     267.060     325.483
  H     -466.205     263.905     325.466
  H     -466.958     266.878     325.604
  H     -468.344     266.520     323.653
  H     -466.508     264.811     322.378
  H     -462.667     265.464     330.387
  H     -465.935     267.677     323.255
  H     -462.052     266.941     329.697
  H     -465.015     266.784     322.030
  P     -469.605     264.338     322.761
  C     -468.390     262.948     320.952
  O     -469.425     262.983     321.927
  O     -469.864     265.557     321.942
  O     -470.890     264.004     323.671
  H     -471.648     264.518     323.318
  H     -468.383     261.991     320.474
  H     -467.446     263.116     321.427
  H     -468.562     263.710     320.221

 6  7  8  9  10  11  12  13  14  15  16  26  30  31  32  33  35 0
 6-311+G(2d,p)
 ****
 37  38 0
 6-311+G(2d,p)
 ****
 1  2  3  4  5  17  18  19  20  21  22  23  24  25 0
 3-21G
 ****
 27  28  29  34  36  39  40  41  42  43  44  45  46 0
 3-21G
 ****


