%nproc=1
%NoSave
%Mem=1900MB
#P OB98/GEN NMR

erre ene a

0 1
  C      207.744    -160.249     171.509
  O      209.039    -159.690     171.402
  H      207.189    -159.695     172.270
  H      207.807    -161.301     171.808
  H      207.223    -160.161     170.554
  P      210.038    -160.390     170.354
  C      209.365    -158.672     168.550
  O      209.402    -160.048     168.915
  C      208.418    -158.463     167.363
  O      207.062    -158.702     167.809
  C      208.479    -157.044     166.783
  O      208.350    -157.112     165.358
  C      207.244    -156.372     167.369
  O      206.781    -155.296     166.565
  C      206.272    -157.548     167.483
  N      201.582    -155.724     168.335
  C      202.264    -155.957     167.195
  N      203.514    -156.469     167.051
  C      204.036    -156.778     168.265
  C      203.451    -156.602     169.499
  C      202.166    -156.029     169.516
  N      201.466    -155.769     170.678
  N      204.318    -157.009     170.502
  C      205.393    -157.430     169.868
  N      205.269    -157.306     168.507
  O      210.330    -161.835     170.598
  O      211.308    -159.415     170.409
  H      206.596    -155.641     165.666
  H      211.034    -158.478     170.400
  H      201.750    -155.699     166.275
  H      206.282    -157.838     170.342
  H      205.734    -157.742     166.540
  H      207.486    -155.976     168.363
  H      209.396    -156.518     167.045
  H      208.644    -159.216     166.594
  H      210.372    -158.331     168.283
  H      200.542    -155.370     170.594
  H      201.886    -156.012     171.566
  H      209.022    -158.101     169.415
  P      209.671    -157.317     164.494
  C      209.205    -159.766     163.819
  O      210.075    -158.875     164.512
  O      210.796    -156.368     164.761
  O      209.131    -157.128     162.984
  H      209.821    -156.661     162.464
  H      209.578    -160.766     163.903
  H      209.159    -159.488     162.787
  H      208.226    -159.713     164.247

 6  7  8  9  10  11  12  13  14  15  25  28  32  33  34  35 0
 6-311+G(2d,p)
 ****
 36  39  40 0
 6-311+G(2d,p)
 ****
 1  2  3  4  5  16  17  18  19  20  21  22  23  24 0
 3-21G
 ****
 26  27  29  30  31  37  38  41  42  43  44  45  46  47 0
 3-21G
 ****
 48 0
 3-21G
 ****


