%nproc=1
%NoSave
%Mem=1900MB
#P OB98/GEN NMR

erre ene a

0 1
  C     -119.289     121.326      81.284
  O     -120.448     120.516      81.200
  P     -121.395     120.556      79.901
  C     -122.770     118.745      78.694
  O     -121.646     119.014      79.529
  C     -122.696     117.316      78.153
  O     -121.506     117.199      77.333
  C     -122.576     116.215      79.208
  O     -123.809     115.786      79.766
  C     -121.986     115.084      78.363
  O     -123.032     114.465      77.592
  C     -121.017     115.834      77.445
  N     -116.735     113.088      78.010
  C     -117.920     112.804      77.418
  N     -119.018     113.580      77.334
  C     -118.795     114.783      77.889
  C     -117.637     115.226      78.519
  C     -116.569     114.311      78.568
  N     -115.349     114.613      79.149
  N     -117.798     116.516      78.985
  C     -119.015     116.855      78.630
  N     -119.661     115.849      77.956
  O     -120.890     121.416      78.795
  O     -122.816     121.025      80.462
  H     -123.554     115.186      77.186
  H     -123.379     121.333      79.722
  H     -117.999     111.820      76.972
  H     -119.480     117.804      78.835
  H     -120.994     115.414      76.431
  H     -121.523     114.292      78.967
  H     -121.854     116.487      79.993
  H     -123.572     117.143      77.509
  H     -122.748     119.448      77.850
  H     -114.604     113.949      79.024
  H     -115.174     115.573      79.418
  H     -123.693     118.912      79.258
  P     -123.809     115.388      81.330
  C     -125.680     115.331      83.169
  O     -125.313     115.612      81.831
  O     -122.754     116.059      82.140
  O     -123.677     113.790      81.286
  H     -124.446     113.320      80.911
  H     -126.690     115.706      83.343
  H     -125.001     115.823      83.869
  H     -125.669     114.251      83.335
  H     -118.800     121.154      82.220
  H     -119.568     122.356      81.212
  H     -118.623     121.080      80.484

 3  4  5  6  7  8  9  10  11  12  22  25  29  30  31  32 0
 6-311+G(2d,p)
 ****
 33  36  37 0
 6-311+G(2d,p)
 ****
 1  2  13  14  15  16  17  18  19  20  21  23  24  26 0
 3-21G
 ****
 27  28  34  35  38  39  40  41  42  43  44  45  46  47  48 0
 3-21G
 ****


