%nproc=1
%NoSave
%Mem=1900MB
#P OB98/GEN NMR

erre ene a

0 1
  C        1.839    -219.873    -131.486
  O        3.173    -219.580    -131.138
  H        1.488    -219.108    -132.186
  H        1.195    -219.852    -130.603
  H        1.775    -220.849    -131.974
  P        3.880    -220.434    -129.974
  C        6.095    -220.811    -131.212
  O        5.455    -220.130    -130.138
  C        6.095    -219.970    -132.488
  O        6.857    -218.753    -132.270
  C        6.704    -220.685    -133.701
  O        5.851    -220.508    -134.835
  C        8.027    -219.965    -133.918
  O        8.488    -220.077    -135.261
  C        7.674    -218.552    -133.439
  N        8.850    -217.741    -133.143
  C        9.275    -216.867    -134.149
  O        8.689    -216.836    -135.232
  N       10.374    -216.080    -133.921
  C       11.028    -216.191    -132.809
  N       12.115    -215.390    -132.649
  C       10.642    -217.134    -131.737
  C        9.552    -217.864    -131.966
  O        3.518    -221.881    -129.954
  O        3.503    -219.660    -128.625
  H        7.714    -219.999    -135.862
  H        3.619    -220.270    -127.854
  H       11.225    -217.199    -130.832
  H        9.189    -218.577    -131.232
  H        7.071    -218.025    -134.191
  H        8.791    -220.399    -133.260
  H        6.853    -221.750    -133.544
  H        5.065    -219.652    -132.690
  H       12.344    -214.757    -133.406
  H        5.577    -221.762    -131.382
  H       12.701    -215.396    -131.827
  H        7.132    -221.014    -130.918
  P        5.060    -221.814    -135.334
  C        3.228    -220.451    -136.558
  O        4.256    -221.423    -136.669
  O        3.913    -221.987    -134.230
  O        5.919    -223.032    -135.440
  H        4.164    -222.679    -133.591
  H        2.783    -220.292    -137.518
  H        3.643    -219.532    -136.200
  H        2.483    -220.797    -135.872

 6  7  8  9  10  11  12  13  14  15  16  26  30  31  32  33  35 0
 6-311+G(2d,p)
 ****
 37  38 0
 6-311+G(2d,p)
 ****
 1  2  3  4  5  17  18  19  20  21  22  23  24  25 0
 3-21G
 ****
 27  28  29  34  36  39  40  41  42  43  44  45  46 0
 3-21G
 ****


