%nproc=1
%NoSave
%Mem=1900MB
#P OB98/GEN NMR

erre ene a

0 1
  C      550.746     165.135     -56.594
  O      552.085     165.588     -56.582
  H      550.112     165.925     -56.185
  H      550.651     164.242     -55.972
  H      550.415     164.913     -57.612
  P      553.183     164.777     -57.417
  C      554.293     163.545     -55.435
  O      554.437     164.540     -56.445
  C      555.592     163.389     -54.636
  O      556.607     162.801     -55.492
  C      556.142     164.751     -54.178
  O      556.911     164.644     -52.981
  C      557.062     165.148     -55.317
  O      558.061     166.090     -54.932
  C      557.619     163.791     -55.748
  N      561.437     164.275     -59.095
  C      561.401     164.601     -57.751
  N      562.540     165.122     -57.234
  N      560.353     164.451     -56.997
  C      559.260     163.988     -57.662
  C      559.162     163.646     -58.988
  C      560.350     163.788     -59.815
  O      560.426     163.535     -61.007
  N      557.890     163.223     -59.300
  C      557.231     163.313     -58.173
  N      558.024     163.741     -57.140
  O      553.749     165.866     -58.445
  O      552.682     163.553     -58.124
  H      558.685     165.631     -54.345
  H      554.153     165.420     -59.218
  H      562.280     164.379     -59.622
  H      556.187     163.056     -58.049
  H      558.497     163.528     -55.138
  H      556.453     165.627     -56.100
  H      563.298     165.433     -57.829
  H      555.358     165.491     -54.027
  H      562.447     165.642     -56.359
  H      555.442     162.700     -53.804
  H      554.032     162.613     -55.939
  H      553.462     163.799     -54.768
  P      556.136     164.662     -51.573
  C      555.575     167.258     -51.504
  O      556.214     166.130     -50.936
  O      557.077     163.785     -50.618
  O      554.742     164.135     -51.625
  H      556.602     162.978     -50.339
  H      555.772     168.120     -50.902
  H      554.520     167.086     -51.547
  H      555.951     167.420     -52.493

 6  7  8  9  10  11  12  13  14  15  26  29  33  34 0
 6-311+G(2d,p)
 ****
 36  38  39  40  41 0
 6-311+G(2d,p)
 ****
 1  2  3  4  5  16  17  18  19  20  21  22  23  24  25 0
 3-21G
 ****
 27  28  30  31  32  35  37  42  43  44  45  46  47 0
 3-21G
 ****
 48  49 0
 3-21G
 ****


