%nproc=1
%NoSave
%Mem=1900MB
#P OB98/GEN NMR

erre ene a

0 1
  C     -896.460     540.832    -851.337
  O     -897.000     542.141    -851.398
  H     -895.370     540.893    -851.318
  H     -896.750     540.262    -852.216
  H     -896.790     540.308    -850.435
  P     -898.580     542.287    -851.273
  C     -898.970     543.880    -849.258
  O     -898.910     542.534    -849.719
  C     -897.640     544.262    -848.576
  O     -896.550     544.177    -849.547
  C     -897.640     545.701    -848.010
  O     -896.910     545.702    -846.771
  C     -896.860     546.492    -849.051
  O     -896.250     547.660    -848.513
  C     -895.870     545.422    -849.565
  N     -895.390     545.756    -850.914
  C     -894.160     546.403    -850.996
  O     -893.530     546.668    -849.964
  N     -893.680     546.766    -852.228
  C     -894.440     546.604    -853.268
  N     -893.910     547.023    -854.468
  C     -895.780     545.988    -853.227
  C     -896.190     545.597    -852.041
  O     -899.120     540.802    -851.531
  O     -899.220     543.280    -852.205
  H     -896.940     548.154    -848.006
  H     -900.000     540.809    -851.944
  H     -896.360     545.894    -854.142
  H     -897.160     545.142    -851.902
  H     -895.020     545.331    -848.896
  H     -897.540     546.801    -849.850
  H     -898.650     546.087    -847.857
  H     -897.430     543.534    -847.786
  H     -892.990     547.445    -854.461
  H     -899.760     543.964    -848.531
  H     -894.430     546.977    -855.345
  H     -899.170     544.547    -850.103
  P     -897.650     545.009    -845.513
  C     -895.860     543.205    -844.835
  O     -897.150     543.467    -845.435
  O     -899.180     544.880    -845.998
  O     -897.520     545.803    -844.254
  H     -899.730     545.528    -845.497
  H     -895.665     542.153    -844.853
  H     -895.861     543.550    -843.822
  H     -895.100     543.718    -845.386

 6  7  8  9  10  11  12  13  14  15  16  26  30  31  32  33  35 0
 6-311+G(2d,p)
 ****
 37  38 0
 6-311+G(2d,p)
 ****
 1  2  3  4  5  17  18  19  20  21  22  23  24  25 0
 3-21G
 ****
 27  28  29  34  36  39  40  41  42  43  44  45  46 0
 3-21G
 ****


