%nproc=1
%NoSave
%Mem=1900MB
#P OB98/GEN NMR

erre ene a

0 1
  C      -14.307     103.530      19.854
  O      -14.799     102.880      21.033
  P      -15.907     101.721      20.991
  C      -18.230     101.304      19.948
  O      -17.204     102.256      20.217
  C      -19.608     101.824      20.369
  O      -19.763     101.748      21.799
  C      -19.880     103.278      20.008
  O      -20.169     103.418      18.628
  C      -21.044     103.599      20.941
  O      -22.290     103.144      20.388
  C      -20.675     102.789      22.200
  N      -20.108     103.621      23.252
  C      -20.988     104.056      24.248
  O      -22.188     103.785      24.183
  N      -20.489     104.811      25.283
  C      -19.240     105.162      25.280
  N      -18.801     105.902      26.334
  C      -18.300     104.801      24.203
  C      -18.797     104.036      23.233
  O      -16.202     101.114      22.325
  O      -15.312     100.614      19.996
  H      -22.261     102.168      20.406
  H      -15.628      99.735      20.273
  H      -17.275     105.137      24.225
  H      -18.172     103.717      22.407
  H      -21.561     102.278      22.598
  H      -21.148     104.671      21.128
  H      -19.016     103.896      20.280
  H      -20.364     101.170      19.915
  H      -19.469     106.127      27.060
  H      -18.002     100.389      20.507
  H      -17.850     106.225      26.430
  H      -18.223     101.072      18.878
  P      -19.308     104.429      17.734
  C      -18.877     106.959      17.672
  O      -19.389     105.873      18.422
  O      -19.597     104.405      16.270
  O      -17.792     103.991      18.023
  H      -17.257     104.161      17.225
  H      -19.335     107.883      18.035
  H      -19.102     106.844      16.608
  H      -17.795     107.019      17.813
  H      -13.579     104.264      20.129
  H      -15.118     104.006      19.344
  H      -13.857     102.805      19.209

 3  4  5  6  7  8  9  10  11  12  13  23  27  28  29  30  32 0
 6-311+G(2d,p)
 ****
 34  35 0
 6-311+G(2d,p)
 ****
 1  2  14  15  16  17  18  19  20  21  22  24  25  26 0
 3-21G
 ****
 31  33  36  37  38  39  40  41  42  43  44  45  46 0
 3-21G
 ****


