%nproc=1
%NoSave
%Mem=1900MB
#P OB98/GEN NMR

erre ene a

0 1
  C       27.737     -10.544     307.537
  O       26.334     -10.412     307.624
  H       28.028     -10.530     306.483
  H       28.059     -11.490     307.982
  H       28.225      -9.708     308.050
  P       25.693     -10.520     309.094
  C       24.304      -8.320     309.297
  O       25.533      -8.987     309.547
  C       24.504      -6.812     309.374
  O       25.335      -6.348     308.285
  C       23.219      -5.995     309.269
  O       22.465      -5.977     310.469
  C       23.800      -4.629     308.946
  O       24.376      -4.057     310.134
  C       24.889      -5.013     307.922
  N       24.409      -4.989     306.538
  C       24.697      -3.835     305.795
  O       25.321      -2.902     306.297
  N       24.239      -3.754     304.500
  C       23.575      -4.739     303.986
  N       23.145      -4.598     302.702
  C       23.260      -5.976     304.726
  C       23.702      -6.033     305.980
  O       26.916     -11.027     309.996
  O       24.455     -11.343     309.209
  H       24.780      -3.211     309.869
  H       26.668     -10.989     310.952
  H       22.691      -6.767     304.258
  H       23.512      -6.912     306.588
  H       25.757      -4.344     308.004
  H       23.059      -3.922     308.578
  H       22.601      -6.325     308.427
  H       25.039      -6.590     310.309
  H       23.324      -3.716     302.239
  H       23.579      -8.645     310.051
  H       22.496      -5.239     302.264
  H       23.930      -8.586     308.303
  P       21.375      -7.139     310.677
  C       21.943      -7.644     313.168
  O       21.941      -8.110     311.823
  O       21.525      -8.014     309.350
  O       19.974      -6.662     310.879
  H       20.663      -8.387     309.075
  H       22.347      -8.401     313.807
  H       20.941      -7.421     313.470
  H       22.542      -6.760     313.238

 6  7  8  9  10  11  12  13  14  15  16  26  30  31  32  33  35 0
 6-311+G(2d,p)
 ****
 37  38 0
 6-311+G(2d,p)
 ****
 1  2  3  4  5  17  18  19  20  21  22  23  24  25 0
 3-21G
 ****
 27  28  29  34  36  39  40  41  42  43  44  45  46 0
 3-21G
 ****


