%nproc=1
%NoSave
%Mem=1900MB
#P OB98/GEN NMR

erre ene a

0 1
  C        9.431     105.904     310.266
  O        9.842     104.701     310.882
  H        9.864     106.746     310.814
  H        8.340     105.991     310.288
  H        9.784     105.936     309.231
  P        9.220     103.343     310.289
  C       11.622     102.336     310.436
  O       10.487     102.608     309.628
  C       12.769     101.834     309.568
  O       13.065     102.779     308.512
  C       14.091     101.642     310.311
  O       14.131     100.457     311.086
  C       15.050     101.581     309.133
  O       14.929     100.305     308.479
  C       14.494     102.719     308.249
  N       15.122     104.016     308.522
  C       16.424     104.194     308.038
  O       16.995     103.298     307.416
  N       17.065     105.386     308.295
  C       16.458     106.316     308.958
  N       17.146     107.471     309.186
  C       15.083     106.176     309.478
  C       14.483     105.015     309.226
  O        8.395     103.841     309.010
  O        8.436     102.511     311.246
  H       15.175      99.630     309.138
  H        8.087     103.062     308.483
  H       14.622     106.976     310.037
  H       13.470     104.837     309.572
  H       14.623     102.485     307.184
  H       16.092     101.696     309.420
  H       14.337     102.516     310.924
  H       12.447     100.899     309.087
  H       18.105     107.515     308.870
  H       11.343     101.575     311.172
  H       16.819     108.191     309.816
  H       11.934     103.244     310.961
  P       13.736     100.574     312.639
  C       12.357      98.367     312.500
  O       12.370      99.751     312.836
  O       13.268     102.094     312.778
  O       14.831     100.233     313.597
  H       13.500     102.455     313.658
  H       11.383      97.964     312.686
  H       13.077      97.848     313.097
  H       12.601      98.249     311.465

 6  7  8  9  10  11  12  13  14  15  16  26  30  31  32  33  35 0
 6-311+G(2d,p)
 ****
 37  38 0
 6-311+G(2d,p)
 ****
 1  2  3  4  5  17  18  19  20  21  22  23  24  25 0
 3-21G
 ****
 27  28  29  34  36  39  40  41  42  43  44  45  46 0
 3-21G
 ****


