%nproc=1
%NoSave
%Mem=1900MB
#P OB98/GEN NMR

erre ene a

0 1
  C       79.179     270.362     -13.757
  O       78.943     269.935     -15.088
  P       79.411     268.442     -15.473
  C       81.563     267.133     -14.829
  O       80.991     268.372     -15.220
  C       83.036     267.320     -14.456
  O       83.152     268.288     -13.393
  C       83.724     266.066     -13.945
  O       84.037     265.181     -15.008
  C       84.943     266.682     -13.257
  O       85.934     267.031     -14.229
  C       84.338     267.957     -12.629
  N       85.996     268.268      -7.795
  C       86.611     268.473      -8.973
  N       86.116     268.347     -10.220
  C       84.826     267.976     -10.178
  C       84.064     267.707      -9.053
  C       84.696     267.865      -7.811
  N       84.057     267.653      -6.606
  N       82.788     267.321      -9.407
  C       82.776     267.370     -10.718
  N       83.979     267.770     -11.237
  O       79.292     268.431     -17.064
  O       78.609     267.351     -14.837
  H       85.472     267.422     -14.995
  H       79.023     267.548     -17.389
  H       87.657     268.786      -8.907
  H       81.920     267.133     -11.339
  H       85.023     268.808     -12.685
  H       85.404     266.006     -12.529
  H       83.095     265.553     -13.209
  H       83.561     267.713     -15.342
  H       81.499     266.419     -15.665
  H       84.622     267.647      -5.769
  H       83.141     267.217      -6.629
  H       80.993     266.726     -13.986
  P       84.706     263.777     -14.620
  C       86.768     263.520     -13.106
  O       86.218     264.162     -14.245
  O       84.865     263.085     -16.053
  O       83.959     262.986     -13.600
  H       85.275     263.688     -16.707
  H       87.809     263.831     -12.999
  H       86.729     262.435     -13.234
  H       86.212     263.810     -12.211
  H       78.823     271.364     -13.636
  H       80.229     270.329     -13.553
  H       78.663     269.716     -13.078

 3  4  5  6  7  8  9  10  11  12  22  25  29  30  31  32 0
 6-311+G(2d,p)
 ****
 33  36  37 0
 6-311+G(2d,p)
 ****
 1  2  13  14  15  16  17  18  19  20  21  23  24  26 0
 3-21G
 ****
 27  28  34  35  38  39  40  41  42  43  44  45  46  47  48 0
 3-21G
 ****


