%nproc=1
%NoSave
%Mem=1900MB
#P OB98/GEN NMR

erre ene a

0 1
  C       62.034     104.983     115.960
  O       61.467     105.411     117.184
  H       61.783     103.935     115.774
  H       61.623     105.593     115.151
  H       63.122     105.110     115.981
  P       61.967     104.655     118.509
  C       60.115     102.844     118.322
  O       61.506     103.125     118.349
  C       59.787     101.710     119.289
  O       60.486     100.506     118.898
  C       60.189     101.969     120.735
  O       59.249     102.792     121.408
  C       60.184     100.549     121.288
  O       58.832     100.142     121.570
  C       60.742      99.743     120.106
  N       64.304      96.261     121.286
  C       62.955      96.185     121.214
  N       62.077      97.151     120.873
  C       62.720      98.290     120.568
  C       64.089      98.514     120.569
  C       64.901      97.436     120.959
  N       66.279      97.547     121.092
  N       64.371      99.818     120.213
  C       63.194     100.374     120.015
  N       62.166      99.489     120.208
  O       60.988     105.233     119.640
  O       63.403     104.867     118.860
  H       58.347     100.176     120.726
  H       61.436     105.962     120.110
  H       62.525      95.219     121.469
  H       63.037     101.407     119.735
  H       60.236      98.775     119.988
  H       60.752     100.450     122.219
  H       61.205     102.376     120.805
  H       58.710     101.504     119.214
  H       59.823     102.551     117.306
  H       66.667      96.915     121.790
  H       66.624      98.500     121.095
  H       59.568     103.752     118.604
  P       59.814     103.904     122.420
  C       59.795     102.542     124.621
  O       60.586     103.109     123.583
  O       58.487     104.437     123.138
  O       60.572     105.019     121.784
  H       58.420     105.406     123.027
  H       60.431     102.045     125.324
  H       59.108     101.837     124.201
  H       59.251     103.317     125.119

 6  7  8  9  10  11  12  13  14  15  25  28  32  33  34  35 0
 6-311+G(2d,p)
 ****
 36  39  40 0
 6-311+G(2d,p)
 ****
 1  2  3  4  5  16  17  18  19  20  21  22  23  24 0
 3-21G
 ****
 26  27  29  30  31  37  38  41  42  43  44  45  46  47  48 0
 3-21G
 ****


