%nproc=1
%NoSave
%Mem=1900MB
#P OB98/GEN NMR

erre ene a

0 1
  C      386.276     -69.404      61.323
  O      387.408     -68.766      61.934
  P      387.730     -67.256      61.493
  C      388.908     -66.064      59.498
  O      388.501     -67.294      60.085
  C      390.398     -66.116      59.141
  O      391.218     -66.073      60.320
  C      390.795     -67.394      58.422
  O      390.411     -67.346      57.060
  C      392.306     -67.424      58.637
  O      393.005     -66.741      57.585
  C      392.480     -66.678      59.986
  N      392.951     -67.545      61.053
  C      393.989     -67.038      61.837
  O      394.465     -65.922      61.600
  N      394.477     -67.812      62.862
  C      393.988     -68.998      63.062
  N      394.520     -69.717      64.090
  C      392.909     -69.583      62.238
  C      392.445     -68.809      61.259
  O      388.866     -66.812      62.523
  O      386.547     -66.345      61.544
  H      392.759     -67.207      56.755
  H      388.793     -65.855      62.718
  H      392.541     -70.578      62.440
  H      391.652     -69.156      60.600
  H      393.203     -65.857      59.877
  H      392.690     -68.447      58.661
  H      390.335     -68.263      58.917
  H      390.634     -65.244      58.513
  H      395.257     -69.290      64.631
  H      388.720     -65.236      60.178
  H      394.215     -70.655      64.330
  H      388.292     -65.877      58.603
  P      389.315     -68.397      56.552
  C      389.435     -70.686      55.386
  O      390.158     -69.664      56.048
  O      388.841     -67.747      55.167
  O      388.168     -68.686      57.463
  H      388.093     -68.251      54.794
  H      390.140     -71.372      54.913
  H      388.795     -70.254      54.610
  H      388.824     -71.236      56.106
  H      386.178     -70.399      61.705
  H      386.417     -69.441      60.263
  H      385.390     -68.848      61.546

 3  4  5  6  7  8  9  10  11  12  13  21  23  27  28  29  30  32 0
 6-311+G(2d,p)
 ****
 34  35 0
 6-311+G(2d,p)
 ****
 1  2  14  15  16  17  18  19  20  22  24  25  26 0
 3-21G
 ****
 31  33  36  37  38  39  40  41  42  43  44  45  46 0
 3-21G
 ****


