%nproc=1
%NoSave
%Mem=1900MB
#P OB98/GEN NMR

erre ene a

0 1
  C       60.708     245.122     -67.819
  O       61.733     246.123     -67.801
  P       63.232     245.637     -67.502
  C       64.661     247.134     -69.113
  O       64.166     246.909     -67.800
  C       65.337     248.502     -69.187
  O       64.385     249.557     -68.906
  C       66.467     248.695     -68.184
  O       67.630     247.981     -68.568
  C       66.607     250.212     -68.198
  O       67.379     250.632     -69.332
  C       65.139     250.668     -68.359
  N       64.551     251.155     -67.117
  C       65.247     252.170     -66.471
  O       66.314     252.629     -66.892
  N       64.690     252.633     -65.309
  C       63.547     252.167     -64.730
  O       63.090     252.628     -63.692
  C       62.879     251.056     -65.435
  C       63.401     250.608     -66.576
  O       63.491     244.655     -68.738
  O       63.387     245.015     -66.156
  H       63.061     244.953     -69.557
  H       67.284     251.605     -69.387
  H       65.175     253.377     -64.831
  H       61.981     250.647     -64.987
  H       62.926     249.790     -67.109
  H       65.077     251.472     -69.103
  H       67.103     250.594     -67.299
  H       66.139     248.362     -67.188
  H       65.714     248.640     -70.211
  H       63.840     247.098     -69.833
  H       65.360     246.333     -69.367
  P       68.259     246.977     -67.483
  C       68.277     244.657     -68.692
  O       68.988     245.812     -68.311
  O       66.937     246.276     -66.907
  O       69.095     247.655     -66.449
  H       66.307     246.023     -67.605
  H       68.811     244.172     -69.517
  H       67.264     244.902     -69.028
  H       68.224     243.963     -67.850
  H       59.765     245.581     -68.029
  H       60.665     244.638     -66.866
  H       60.929     244.399     -68.576

 3  4  5  6  7  8  9  10  11  12  13  24  28  29  30  31  32 0
 6-311+G(2d,p)
 ****
 33  34 0
 6-311+G(2d,p)
 ****
 1  2  14  15  16  17  18  19  20  21  22  23  25  26  27 0
 3-21G
 ****
 35  36  37  38  39  40  41  42  43  44  45 0
 3-21G
 ****


