%nproc=1
%NoSave
%Mem=1900MB
#P OB98/GEN NMR

erre ene a

0 1
  C     -485.897    -138.302     117.367
  O     -487.165    -137.908     116.864
  P     -488.230    -137.330     117.921
  C     -489.222    -139.736     117.838
  O     -488.871    -138.609     118.640
  C     -490.497    -140.387     118.367
  O     -490.271    -140.910     119.689
  C     -491.671    -139.436     118.501
  O     -492.253    -139.185     117.235
  C     -492.576    -140.199     119.458
  O     -493.420    -141.119     118.748
  C     -491.558    -140.954     120.348
  N     -491.485    -140.418     121.700
  C     -492.280    -141.052     122.653
  O     -493.004    -142.003     122.325
  N     -492.272    -140.578     123.942
  C     -491.539    -139.555     124.245
  N     -491.559    -139.128     125.541
  C     -490.699    -138.840     123.262
  C     -490.726    -139.314     122.013
  O     -489.415    -136.795     116.986
  O     -487.700    -136.269     118.829
  H     -494.085    -141.424     119.398
  H     -489.909    -136.078     117.430
  H     -490.104    -137.988     123.569
  H     -490.138    -138.849     121.231
  H     -491.834    -142.016     120.419
  H     -493.233    -139.529     120.019
  H     -491.356    -138.491     118.962
  H     -490.753    -141.228     117.703
  H     -492.151    -139.634     126.191
  H     -488.406    -140.466     117.873
  H     -491.002    -138.353     125.878
  H     -489.350    -139.408     116.803
  P     -492.960    -137.761     117.005
  C     -495.347    -138.689     116.826
  O     -494.437    -137.937     117.607
  O     -493.237    -137.776     115.422
  O     -492.208    -136.551     117.435
  H     -493.579    -136.907     115.142
  H     -496.250    -138.858     117.412
  H     -494.912    -139.658     116.556
  H     -495.613    -138.133     115.923
  H     -485.291    -138.665     116.563
  H     -486.027    -139.077     118.093
  H     -485.418    -137.461     117.824

 3  4  5  6  7  8  9  10  11  12  13  21  23  27  28  29  30  32 0
 6-311+G(2d,p)
 ****
 34  35 0
 6-311+G(2d,p)
 ****
 1  2  14  15  16  17  18  19  20  22  24  25  26 0
 3-21G
 ****
 31  33  36  37  38  39  40  41  42  43  44  45  46 0
 3-21G
 ****


