%nproc=1
%NoSave
%Mem=1900MB
#P OB98/GEN NMR

erre ene a

0 1
  C       27.739     340.436    -342.181
  O       27.776     341.098    -343.433
  H       28.469     339.623    -342.199
  H       26.748     340.007    -342.013
  H       27.997     341.121    -341.368
  P       26.898     342.425    -343.631
  C       25.007     341.429    -345.082
  O       25.370     341.962    -343.814
  C       23.518     341.066    -345.118
  O       22.743     342.229    -344.721
  C       23.020     340.617    -346.493
  O       22.058     339.575    -346.333
  C       22.345     341.862    -347.048
  O       21.337     341.548    -348.007
  C       21.802     342.513    -345.775
  N       18.488     346.140    -346.964
  C       18.300     344.770    -346.816
  N       17.059     344.300    -347.031
  N       19.261     343.942    -346.487
  C       20.452     344.559    -346.280
  C       20.765     345.898    -346.396
  C       19.698     346.797    -346.782
  O       19.806     348.006    -346.947
  N       22.085     346.124    -346.125
  C       22.580     344.931    -345.843
  N       21.630     343.946    -345.937
  O       27.399     343.356    -344.688
  O       26.898     343.117    -342.188
  H       21.773     341.058    -348.732
  H       27.488     343.890    -342.175
  H       17.715     346.729    -347.234
  H       23.609     344.724    -345.577
  H       20.822     342.104    -345.478
  H       23.093     342.506    -347.530
  H       16.263     344.894    -347.261
  H       23.835     340.275    -347.137
  H       16.888     343.320    -346.895
  H       23.335     340.295    -344.362
  H       25.610     340.532    -345.263
  H       25.234     342.165    -345.864
  P       22.562     338.056    -346.225
  C       22.261     337.539    -348.724
  O       23.185     337.616    -347.640
  O       21.587     337.094    -345.640
  O       23.876     338.183    -345.296
  H       23.941     337.383    -344.736
  H       22.777     337.240    -349.612
  H       21.812     338.498    -348.879
  H       21.501     336.822    -348.494

 6  7  8  9  10  11  12  13  14  15  26  29  33  34 0
 6-311+G(2d,p)
 ****
 36  38  39  40  41 0
 6-311+G(2d,p)
 ****
 1  2  3  4  5  16  17  18  19  20  21  22  23  24  25 0
 3-21G
 ****
 27  28  30  31  32  35  37  42  43  44  45  46  47 0
 3-21G
 ****
 48  49 0
 3-21G
 ****


