%nproc=1
%NoSave
%Mem=1900MB
#P OB98/GEN NMR

erre ene a

0 1
  C       -0.561      85.665    -222.852
  O       -1.491      85.005    -223.695
  P       -2.301      83.715    -223.184
  C       -1.417      81.742    -221.769
  O       -1.174      82.623    -222.857
  C       -0.328      80.673    -221.711
  O        0.966      81.306    -221.662
  C       -0.396      79.767    -220.490
  O       -1.428      78.803    -220.627
  C        1.023      79.211    -220.465
  O        1.162      78.147    -221.421
  C        1.850      80.431    -220.917
  N        2.473      81.141    -219.803
  C        3.363      80.404    -219.015
  O        3.608      79.227    -219.265
  N        3.991      81.037    -217.970
  C        3.736      82.284    -217.717
  N        4.438      82.876    -216.711
  C        2.764      83.080    -218.489
  C        2.179      82.453    -219.510
  O       -3.373      83.244    -224.104
  O       -2.825      84.117    -221.733
  H        0.554      77.434    -221.145
  H       -3.706      84.572    -221.741
  H        2.576      84.114    -218.232
  H        1.467      82.974    -220.137
  H        2.630      80.118    -221.619
  H        1.322      78.820    -219.486
  H       -0.576      80.360    -219.582
  H       -0.386      80.078    -222.632
  H        5.214      82.348    -216.328
  H       -2.387      81.259    -221.919
  H        4.515      83.883    -216.643
  H       -1.452      82.317    -220.839
  P       -1.875      78.005    -219.309
  C       -0.350      77.257    -217.346
  O       -0.537      77.303    -218.747
  O       -2.746      76.794    -219.888
  O       -2.631      78.824    -218.318
  H       -3.699      76.985    -219.788
  H        0.457      76.554    -217.127
  H       -1.260      76.909    -216.843
  H       -0.070      78.244    -216.971
  H       -0.131      86.494    -223.375
  H        0.212      84.981    -222.570
  H       -1.062      86.018    -221.975

 3  4  5  6  7  8  9  10  11  12  13  23  27  28  29  30  32 0
 6-311+G(2d,p)
 ****
 34  35 0
 6-311+G(2d,p)
 ****
 1  2  14  15  16  17  18  19  20  21  22  24  25  26 0
 3-21G
 ****
 31  33  36  37  38  39  40  41  42  43  44  45  46 0
 3-21G
 ****


