%nproc=1
%NoSave
%Mem=1900MB
#P OB98/GEN NMR

erre ene a

0 1
  C      139.144    -335.704    -166.784
  O      137.941    -336.197    -167.364
  P      137.823    -337.778    -167.618
  C      135.617    -337.866    -166.249
  O      136.948    -338.348    -166.400
  C      135.212    -337.867    -164.777
  O      135.887    -336.802    -164.070
  C      133.724    -337.646    -164.522
  O      132.971    -338.845    -164.679
  C      133.736    -337.214    -163.075
  O      133.866    -338.365    -162.215
  C      135.006    -336.354    -163.000
  N      133.237    -332.157    -160.671
  C      133.302    -333.443    -160.273
  N      133.781    -334.508    -160.949
  C      134.184    -334.143    -162.185
  C      134.136    -332.865    -162.746
  C      133.647    -331.839    -161.922
  N      133.600    -330.520    -162.319
  N      134.635    -332.883    -164.029
  C      134.974    -334.136    -164.251
  N      134.734    -334.937    -163.153
  O      139.303    -338.311    -167.283
  O      137.380    -338.170    -168.983
  H      133.046    -338.887    -162.309
  H      139.463    -339.156    -167.738
  H      132.942    -333.650    -159.273
  H      135.420    -334.512    -165.160
  H      135.551    -336.486    -162.052
  H      132.812    -336.702    -162.771
  H      133.330    -336.834    -165.152
  H      135.539    -338.819    -164.333
  H      134.938    -338.514    -166.806
  H      133.410    -329.820    -161.613
  H      134.096    -330.265    -163.174
  H      135.556    -336.843    -166.660
  P      131.892    -338.879    -165.856
  C      132.475    -341.212    -166.833
  O      132.523    -339.810    -167.004
  O      131.978    -337.398    -166.474
  O      130.507    -339.229    -165.415
  H      131.129    -337.155    -166.899
  H      132.662    -341.690    -167.806
  H      131.497    -341.532    -166.475
  H      133.254    -341.539    -166.143
  H      139.078    -334.642    -166.676
  H      139.971    -335.947    -167.417
  H      139.287    -336.152    -165.823

 3  4  5  6  7  8  9  10  11  12  22  25  29  30  31  32 0
 6-311+G(2d,p)
 ****
 33  36  37 0
 6-311+G(2d,p)
 ****
 1  2  13  14  15  16  17  18  19  20  21  23  24  26 0
 3-21G
 ****
 27  28  34  35  38  39  40  41  42  43  44  45  46  47  48 0
 3-21G
 ****


