%nproc=1
%NoSave
%Mem=1900MB
#P OB98/GEN NMR

erre ene a

0 1
  C      142.419      89.721      78.530
  O      142.389      88.313      78.698
  P      141.085      87.471      78.300
  C      139.784      87.087      76.116
  O      140.663      87.951      76.827
  C      138.655      87.885      75.465
  O      137.666      88.200      76.474
  C      139.118      89.200      74.851
  O      138.361      89.447      73.663
  C      138.741      90.250      75.882
  O      138.546      91.535      75.269
  C      137.485      89.628      76.500
  N      134.867      92.748      79.623
  C      134.806      92.558      78.288
  N      135.549      91.732      77.520
  C      136.392      91.014      78.279
  C      136.564      91.095      79.653
  C      135.753      92.016      80.337
  N      135.808      92.200      81.702
  N      137.547      90.222      80.074
  C      137.944      89.613      78.979
  N      137.269      90.050      77.870
  O      139.983      87.504      79.301
  O      141.623      85.987      78.056
  H      137.918      91.408      74.528
  H      140.979      85.333      78.389
  H      134.063      93.153      77.763
  H      138.719      88.863      78.931
  H      136.587      89.869      75.916
  H      139.547      90.347      76.618
  H      140.189      89.210      74.621
  H      138.168      87.253      74.713
  H      139.356      86.372      76.824
  H      135.106      92.790      82.118
  H      136.339      91.536      82.249
  H      140.350      86.532      75.361
  P      139.094      90.334      72.534
  C      141.373      90.012      71.319
  O      140.578      89.738      72.450
  O      138.959      91.797      72.797
  O      138.357      89.820      71.209
  H      137.998      88.913      71.325
  H      142.327      89.491      71.428
  H      141.570      91.085      71.247
  H      140.879      89.661      70.409
  H      143.368      90.098      78.850
  H      141.642      90.167      79.116
  H      142.269      89.960      77.498

 3  4  5  6  7  8  9  10  11  12  22  25  29  30  31  32 0
 6-311+G(2d,p)
 ****
 33  36  37 0
 6-311+G(2d,p)
 ****
 1  2  13  14  15  16  17  18  19  20  21  23  24  26 0
 3-21G
 ****
 27  28  34  35  38  39  40  41  42  43  44  45  46  47  48 0
 3-21G
 ****


