%nproc=1
%NoSave
%Mem=1900MB
#P OB98/GEN NMR

erre ene a

0 1
  C     -416.689     -31.185      51.832
  O     -417.671     -30.164      51.750
  P     -419.205     -30.476      52.099
  C     -419.035     -29.185      54.316
  O     -419.328     -30.433      53.699
  C     -419.878     -28.998      55.576
  O     -419.467     -27.777      56.235
  C     -421.372     -28.886      55.296
  O     -422.090     -29.520      56.358
  C     -421.655     -27.394      55.354
  O     -423.025     -27.136      55.706
  C     -420.623     -26.932      56.388
  N     -422.166     -22.037      56.320
  C     -422.831     -23.184      56.582
  N     -422.364     -24.451      56.555
  C     -421.052     -24.465      56.275
  C     -420.241     -23.377      55.990
  C     -420.851     -22.111      56.016
  N     -420.166     -20.941      55.762
  N     -418.950     -23.789      55.716
  C     -418.981     -25.095      55.855
  N     -420.225     -25.552      56.201
  O     -419.757     -31.706      51.467
  O     -419.996     -29.165      51.640
  H     -423.581     -27.573      55.028
  H     -420.855     -29.407      51.247
  H     -423.878     -23.069      56.842
  H     -418.139     -25.755      55.705
  H     -420.996     -27.050      57.412
  H     -421.469     -26.946      54.373
  H     -421.659     -29.325      54.335
  H     -419.671     -29.827      56.262
  H     -419.270     -28.386      53.605
  H     -420.656     -20.076      55.924
  H     -419.158     -20.982      55.709
  H     -417.968     -29.137      54.551
  P     -423.592     -29.988      56.008
  C     -422.737     -32.389      55.475
  O     -423.410     -31.235      55.021
  O     -424.436     -28.854      55.527
  O     -424.052     -30.619      57.407
  H     -423.282     -30.925      57.936
  H     -422.682     -33.108      54.654
  H     -423.292     -32.848      56.299
  H     -421.725     -32.140      55.801
  H     -415.734     -30.784      51.563
  H     -416.944     -31.979      51.162
  H     -416.649     -31.561      52.833

 3  4  5  6  7  8  9  10  11  12  22  25  29  30  31  32 0
 6-311+G(2d,p)
 ****
 33  36  37 0
 6-311+G(2d,p)
 ****
 1  2  13  14  15  16  17  18  19  20  21  23  24  26 0
 3-21G
 ****
 27  28  34  35  38  39  40  41  42  43  44  45  46  47  48 0
 3-21G
 ****


