%nproc=1
%NoSave
%Mem=1900MB
#P OB98/GEN NMR

erre ene a

0 1
  C      220.512     154.179     251.703
  O      220.710     153.195     252.732
  P      219.508     152.434     253.467
  C      218.152     150.648     252.159
  O      219.377     150.965     252.817
  C      218.252     149.298     251.449
  O      219.309     149.328     250.454
  C      218.618     148.114     252.340
  O      217.541     147.711     253.168
  C      219.037     147.078     251.302
  O      217.900     146.373     250.775
  C      219.670     147.952     250.200
  N      221.111     147.796     250.109
  C      221.592     146.535     249.750
  O      220.809     145.592     249.602
  N      222.946     146.365     249.579
  C      223.751     147.343     249.848
  N      225.086     147.123     249.649
  C      223.303     148.649     250.367
  C      221.982     148.807     250.467
  O      218.222     153.197     253.486
  O      220.026     152.149     254.952
  H      219.269     152.076     255.561
  H      217.375     146.075     251.541
  H      224.015     149.424     250.617
  H      221.563     149.745     250.826
  H      219.225     147.713     249.226
  H      219.718     146.325     251.724
  H      219.485     148.383     252.960
  H      217.298     149.109     250.938
  H      225.360     146.219     249.281
  H      217.944     151.426     251.418
  H      225.797     147.824     249.805
  H      217.340     150.644     252.898
  P      217.561     148.215     254.693
  C      217.227     150.511     255.865
  O      217.573     149.818     254.674
  O      219.031     147.830     255.191
  O      216.514     147.598     255.564
  H      218.993     147.513     256.115
  H      217.727     151.483     255.852
  H      217.540     149.959     256.753
  H      216.148     150.671     255.889
  H      221.462     154.542     251.369
  H      219.936     154.992     252.093
  H      219.991     153.735     250.881

 3  4  5  6  7  8  9  10  11  12  13  24  27  28  29  30  32 0
 6-311+G(2d,p)
 ****
 34  35 0
 6-311+G(2d,p)
 ****
 1  2  14  15  16  17  18  19  20  21  22  23  25  26 0
 3-21G
 ****
 31  33  36  37  38  39  40  41  42  43  44  45  46 0
 3-21G
 ****


