%nproc=1
%NoSave
%Mem=1900MB
#P OB98/GEN NMR

erre ene a

0 1
  C      -30.756     393.360    -324.733
  O      -32.121     393.540    -325.106
  P      -32.703     392.569    -326.243
  C      -32.371     394.321    -328.169
  O      -33.255     393.492    -327.434
  C      -33.150     395.281    -329.088
  O      -34.076     394.498    -329.892
  C      -34.023     396.307    -328.367
  O      -34.334     397.362    -329.281
  C      -35.273     395.509    -328.080
  O      -36.376     396.356    -327.784
  C      -35.415     394.643    -329.346
  N      -35.998     393.307    -329.086
  C      -37.253     393.236    -328.483
  O      -37.899     394.222    -328.136
  N      -37.729     391.976    -328.231
  C      -37.118     390.805    -328.556
  O      -37.543     389.702    -328.229
  C      -35.868     390.935    -329.322
  C      -35.374     392.154    -329.542
  O      -34.030     391.961    -325.577
  O      -31.758     391.507    -326.676
  H      -36.208     396.751    -326.894
  H      -33.871     391.032    -325.316
  H      -38.602     391.914    -327.723
  H      -35.391     390.028    -329.666
  H      -34.437     392.265    -330.090
  H      -36.046     395.135    -330.095
  H      -35.110     394.875    -327.207
  H      -33.577     396.722    -327.466
  H      -32.456     395.770    -329.774
  H      -31.686     393.711    -328.754
  H      -31.759     394.905    -327.475
  P      -33.810     398.841    -328.942
  C      -36.017     400.095    -329.334
  O      -34.703     399.849    -329.801
  O      -32.331     399.047    -329.021
  O      -34.357     399.074    -327.444
  H      -33.860     399.798    -327.025
  H      -36.322     401.098    -329.629
  H      -36.079     400.011    -328.245
  H      -36.699     399.365    -329.788
  H      -30.498     394.066    -323.972
  H      -30.130     393.512    -325.587
  H      -30.616     392.367    -324.360

 3  4  5  6  7  8  9  10  11  12  13  23  28  29  30  31  32 0
 6-311+G(2d,p)
 ****
 33  34 0
 6-311+G(2d,p)
 ****
 1  2  14  15  16  17  18  19  20  21  22  24  25  26  27 0
 3-21G
 ****
 35  36  37  38  39  40  41  42  43  44  45 0
 3-21G
 ****


