%nproc=1
%NoSave
%Mem=1900MB
#P OB98/GEN NMR

erre ene a

0 1
  C      501.471     -44.337    -695.081
  O      500.674     -45.048    -694.160
  H      502.120     -45.045    -695.604
  H      502.097     -43.606    -694.566
  H      500.843     -43.834    -695.822
  P      499.672     -44.228    -693.216
  C      497.575     -44.999    -694.514
  O      498.373     -43.893    -694.097
  C      496.190     -44.515    -694.963
  O      495.523     -43.955    -693.806
  C      496.272     -43.426    -696.047
  O      495.485     -43.734    -697.194
  C      495.958     -42.150    -695.279
  O      495.410     -41.115    -696.069
  C      495.053     -42.635    -694.142
  N      495.063     -41.768    -692.969
  C      494.852     -40.409    -693.173
  O      494.645     -39.881    -694.269
  N      494.875     -39.627    -692.052
  C      495.096     -40.058    -690.776
  O      495.107     -39.306    -689.804
  C      495.345     -41.500    -690.621
  C      495.312     -42.283    -691.712
  O      500.267     -43.056    -692.511
  O      499.130     -45.326    -692.180
  H      494.559     -41.438    -696.423
  H      499.558     -45.188    -691.311
  H      494.706     -38.643    -692.186
  H      495.534     -41.874    -689.627
  H      495.487     -43.348    -691.631
  H      494.017     -42.718    -694.482
  H      496.894     -41.762    -694.851
  H      497.288     -43.363    -696.450
  H      495.609     -45.379    -695.300
  H      497.482     -45.683    -693.666
  H      498.071     -45.518    -695.341
  P      496.041     -44.381    -698.543
  C      493.940     -45.915    -698.944
  O      495.346     -45.807    -698.745
  O      497.523     -44.319    -698.735
  O      495.367     -43.487    -699.703
  H      496.005     -43.462    -700.443
  H      493.674     -46.945    -699.058
  H      493.662     -45.375    -699.825
  H      493.428     -45.506    -698.099

 6  7  8  9  10  11  12  13  14  15  16  26  31  32  33  34  35 0
 6-311+G(2d,p)
 ****
 36  37 0
 6-311+G(2d,p)
 ****
 1  2  3  4  5  17  18  19  20  21  22  23  24  25 0
 3-21G
 ****
 27  28  29  30  38  39  40  41  42  43  44  45 0
 3-21G
 ****


