%nproc=1
%NoSave
%Mem=1900MB
#P OB98/GEN NMR

erre ene a

0 1
  C      278.908     417.100    -136.917
  O      278.594     417.048    -138.286
  P      277.356     417.884    -138.876
  C      275.599     416.025    -138.568
  O      276.034     417.305    -138.150
  C      274.247     415.700    -137.939
  O      274.361     415.558    -136.499
  C      273.198     416.786    -138.126
  O      272.747     417.037    -139.441
  C      272.154     416.370    -137.104
  O      271.311     415.339    -137.610
  C      273.047     415.845    -135.952
  N      273.115     416.784    -134.831
  C      271.965     416.889    -134.058
  O      270.937     416.249    -134.272
  N      272.020     417.799    -133.032
  C      273.073     418.616    -132.736
  O      273.039     419.444    -131.828
  C      274.250     418.473    -133.604
  C      274.226     417.573    -134.595
  O      277.268     417.937    -140.357
  O      277.520     419.325    -138.181
  H      270.926     414.878    -136.836
  H      277.494     419.316    -137.205
  H      271.194     417.897    -132.467
  H      275.110     419.097    -133.393
  H      275.084     417.454    -135.249
  H      272.650     414.891    -135.574
  H      271.506     417.212    -136.822
  H      273.633     417.741    -137.786
  H      273.910     414.736    -138.331
  H      276.330     415.279    -138.239
  H      275.550     415.986    -139.663
  P      272.316     418.491    -139.967
  C      269.832     418.128    -139.299
  O      270.988     418.939    -139.185
  O      272.346     418.704    -141.441
  O      273.435     419.424    -139.283
  H      273.602     420.189    -139.858
  H      269.030     418.599    -138.735
  H      270.021     417.134    -138.866
  H      269.536     418.030    -140.338
  H      279.758     416.480    -136.722
  H      278.073     416.750    -136.346
  H      279.131     418.109    -136.640

 3  4  5  6  7  8  9  10  11  12  13  23  28  29  30  31  32 0
 6-311+G(2d,p)
 ****
 33  34 0
 6-311+G(2d,p)
 ****
 1  2  14  15  16  17  18  19  20  21  22  24  25  26  27 0
 3-21G
 ****
 35  36  37  38  39  40  41  42  43  44  45 0
 3-21G
 ****


