%nproc=1
%NoSave
%Mem=1900MB
#P OB98/GEN NMR

erre ene a

0 1
  C     1057.452    1199.778    -669.653
  O     1058.405    1199.066    -668.874
  H     1057.319    1200.767    -669.208
  H     1056.486    1199.268    -669.661
  H     1057.824    1199.899    -670.679
  P     1058.695    1197.539    -669.254
  C     1057.865    1196.506    -667.032
  O     1058.987    1196.773    -667.879
  C     1058.026    1197.195    -665.677
  O     1057.523    1198.562    -665.781
  C     1057.280    1196.498    -664.522
  O     1058.003    1196.732    -663.315
  C     1055.971    1197.276    -664.516
  O     1055.234    1197.038    -663.346
  C     1056.492    1198.695    -664.772
  N     1055.443    1199.606    -665.195
  C     1054.956    1200.488    -664.199
  O     1055.419    1200.451    -663.054
  N     1053.960    1201.378    -664.533
  C     1053.453    1201.341    -665.736
  N     1052.459    1202.232    -665.999
  C     1053.903    1200.384    -666.772
  C     1054.871    1199.586    -666.445
  O     1059.721    1197.323    -670.313
  O     1057.260    1196.955    -669.700
  H     1054.526    1197.706    -663.245
  H     1057.230    1196.881    -670.665
  H     1053.398    1200.384    -667.767
  H     1055.280    1198.837    -667.160
  H     1056.966    1199.101    -663.856
  H     1055.335    1196.945    -665.356
  H     1057.131    1195.432    -664.695
  H     1059.111    1197.264    -665.452
  H     1052.173    1202.862    -665.248
  H     1057.798    1195.428    -666.911
  H     1051.949    1202.277    -666.882
  H     1056.930    1196.866    -667.510
  P     1058.626    1195.557    -662.428
  C     1057.579    1196.001    -660.112
  O     1058.752    1196.046    -660.913
  O     1059.861    1194.951    -662.985
  O     1057.452    1194.447    -662.349
  H     1057.869    1193.567    -662.272
  H     1057.806    1196.354    -659.128
  H     1057.224    1194.993    -660.056
  H     1056.825    1196.622    -660.549

 6  7  8  9  10  11  12  13  14  15  16  26  30  31  32  33  35 0
 6-311+G(2d,p)
 ****
 37  38 0
 6-311+G(2d,p)
 ****
 1  2  3  4  5  17  18  19  20  21  22  23  24  25 0
 3-21G
 ****
 27  28  29  34  36  39  40  41  42  43  44  45  46 0
 3-21G
 ****


