%nproc=1
%NoSave
%Mem=1900MB
#P OB98/GEN NMR

erre ene a

0 1
  C      110.498    -778.336      79.712
  O      111.350    -778.348      78.586
  H      110.483    -777.324      80.125
  H      110.872    -779.026      80.477
  H      109.480    -778.616      79.418
  P      111.538    -779.758      77.839
  C      113.115    -778.390      76.297
  O      112.914    -779.594      77.024
  C      114.528    -778.345      75.723
  O      115.463    -777.918      76.726
  C      115.030    -779.683      75.197
  O      114.568    -779.902      73.882
  C      116.537    -779.443      75.216
  O      116.929    -778.695      74.044
  C      116.737    -778.578      76.478
  N      120.665    -780.542      79.146
  C      120.593    -780.038      77.891
  N      119.508    -779.578      77.217
  C      118.405    -779.682      77.998
  C      118.325    -780.183      79.284
  C      119.522    -780.615      79.860
  N      119.601    -781.138      81.142
  N      117.028    -780.114      79.755
  C      116.345    -779.543      78.778
  N      117.133    -779.293      77.671
  O      110.364    -780.239      77.055
  O      111.968    -780.699      79.065
  H      116.748    -779.280      73.271
  H      112.578    -780.222      79.661
  H      121.527    -779.995      77.338
  H      115.301    -779.268      78.827
  H      117.473    -777.794      76.313
  H      117.109    -780.368      75.217
  H      114.788    -780.511      75.873
  H      114.538    -777.577      74.920
  H      112.948    -777.531      76.951
  H      120.440    -781.600      81.409
  H      118.725    -781.304      81.631
  H      112.366    -778.361      75.497
  P      114.164    -781.378      73.379
  C      114.885    -780.777      70.984
  O      115.077    -781.648      72.088
  O      112.692    -781.588      73.191
  O      114.792    -782.354      74.481
  H      114.385    -783.233      74.420
  H      115.546    -781.056      70.190
  H      115.092    -779.771      71.283
  H      113.872    -780.847      70.646

 6  7  8  9  10  11  12  13  14  15  25  28  32  33  34  35 0
 6-311+G(2d,p)
 ****
 36  39  40 0
 6-311+G(2d,p)
 ****
 1  2  3  4  5  16  17  18  19  20  21  22  23  24 0
 3-21G
 ****
 26  27  29  30  31  37  38  41  42  43  44  45  46  47 0
 3-21G
 ****
 48 0
 3-21G
 ****


