%nproc=1
%NoSave
%Mem=1900MB
#P OB98/GEN NMR

erre ene a

0 1
  C     -132.053    -222.561     483.954
  O     -132.465    -221.584     484.888
  P     -131.393    -220.627     485.595
  C     -130.981    -221.948     487.774
  O     -130.475    -221.600     486.484
  C     -129.891    -222.603     488.624
  O     -129.480    -223.857     488.044
  C     -128.624    -221.769     488.760
  O     -128.812    -220.722     489.689
  C     -127.620    -222.835     489.192
  O     -127.702    -223.079     490.606
  C     -128.096    -224.068     488.397
  N     -127.270    -224.324     487.223
  C     -126.704    -225.602     487.140
  O     -126.884    -226.423     488.042
  N     -125.904    -225.897     486.061
  C     -125.672    -224.995     485.164
  N     -124.863    -225.343     484.128
  C     -126.225    -223.625     485.230
  C     -127.007    -223.361     486.276
  O     -131.961    -219.450     486.312
  O     -130.414    -220.226     484.388
  H     -128.652    -223.180     490.808
  H     -130.838    -219.568     483.783
  H     -125.998    -222.902     484.461
  H     -127.456    -222.385     486.402
  H     -128.076    -224.966     489.030
  H     -126.589    -222.539     488.978
  H     -128.336    -221.374     487.779
  H     -130.316    -222.810     489.615
  H     -124.483    -226.281     484.136
  H     -131.806    -222.650     487.640
  H     -124.590    -224.708     483.393
  H     -131.368    -221.049     488.262
  P     -128.301    -219.246     489.344
  C     -125.739    -219.309     489.498
  O     -126.862    -219.380     488.644
  O     -128.377    -218.262     490.463
  O     -129.251    -218.798     488.133
  H     -129.544    -217.880     488.282
  H     -124.876    -219.735     488.977
  H     -125.910    -219.872     490.418
  H     -125.527    -218.266     489.738
  H     -132.908    -223.095     483.596
  H     -131.378    -223.244     484.426
  H     -131.561    -222.084     483.133

 3  4  5  6  7  8  9  10  11  12  13  23  27  28  29  30  32 0
 6-311+G(2d,p)
 ****
 34  35 0
 6-311+G(2d,p)
 ****
 1  2  14  15  16  17  18  19  20  21  22  24  25  26 0
 3-21G
 ****
 31  33  36  37  38  39  40  41  42  43  44  45  46 0
 3-21G
 ****


