%nproc=1
%NoSave
%Mem=1900MB
#P OB98/GEN NMR

erre ene a

0 1
  C      -87.128     -13.211     -18.462
  O      -88.404     -12.699     -18.777
  P      -89.021     -11.454     -17.982
  C      -89.935     -11.030     -15.612
  O      -89.476     -12.004     -16.541
  C      -90.120     -11.662     -14.227
  O      -91.145     -12.700     -14.321
  C      -88.831     -12.317     -13.692
  O      -88.452     -11.890     -12.383
  C      -89.124     -13.801     -13.836
  O      -88.328     -14.627     -13.008
  C      -90.638     -13.842     -13.605
  N      -91.240     -15.094     -14.056
  C      -91.070     -16.209     -13.241
  O      -90.462     -16.204     -12.174
  N      -91.577     -17.385     -13.721
  C      -92.120     -17.578     -14.955
  O      -92.464     -18.679     -15.359
  C      -92.237     -16.371     -15.788
  C      -91.821     -15.198     -15.303
  O      -90.076     -10.692     -18.709
  O      -87.727     -10.585     -17.611
  H      -88.490     -14.369     -12.082
  H      -87.067     -11.046     -17.066
  H      -91.460     -18.201     -13.141
  H      -92.654     -16.495     -16.777
  H      -91.895     -14.292     -15.894
  H      -90.885     -13.701     -12.551
  H      -88.907     -14.085     -14.873
  H      -87.968     -12.054     -14.315
  H      -90.477     -10.882     -13.549
  H      -90.894     -10.638     -15.957
  H      -89.231     -10.191     -15.574
  P      -87.073     -12.259     -11.659
  C      -86.175     -14.220     -10.207
  O      -87.234     -13.701     -10.985
  O      -86.522     -11.201     -10.764
  O      -86.075     -12.540     -12.880
  H      -85.163     -12.324     -12.611
  H      -86.207     -15.311     -10.257
  H      -86.311     -13.914      -9.166
  H      -85.203     -13.875     -10.568
  H      -86.906     -14.036     -19.106
  H      -87.117     -13.540     -17.444
  H      -86.393     -12.445     -18.597

 3  4  5  6  7  8  9  10  11  12  13  23  28  29  30  31  32 0
 6-311+G(2d,p)
 ****
 33  34 0
 6-311+G(2d,p)
 ****
 1  2  14  15  16  17  18  19  20  21  22  24  25  26  27 0
 3-21G
 ****
 35  36  37  38  39  40  41  42  43  44  45 0
 3-21G
 ****


