%nproc=1
%NoSave
%Mem=1900MB
#P OB98/GEN NMR

erre ene a

0 1
  C      201.615    -362.091     -73.939
  O      201.327    -361.964     -72.558
  P      199.981    -361.187     -72.154
  C      199.183    -358.727     -72.450
  O      200.284    -359.633     -72.402
  C      199.460    -357.504     -71.581
  O      199.631    -357.900     -70.210
  C      200.732    -356.763     -71.957
  O      200.527    -355.965     -73.110
  C      200.995    -355.953     -70.691
  O      200.277    -354.712     -70.709
  C      200.451    -356.887     -69.581
  N      201.506    -357.479     -68.779
  C      202.080    -356.642     -67.814
  O      201.695    -355.475     -67.698
  N      203.094    -357.134     -67.033
  C      203.507    -358.354     -67.207
  N      204.515    -358.791     -66.401
  C      202.943    -359.261     -68.226
  C      201.960    -358.760     -68.972
  O      199.954    -361.314     -70.561
  O      198.739    -361.717     -72.789
  H      200.444    -354.294     -69.840
  H      199.038    -361.265     -70.225
  H      203.320    -360.268     -68.328
  H      201.492    -359.359     -69.744
  H      199.784    -356.327     -68.909
  H      202.054    -355.708     -70.569
  H      201.557    -357.466     -72.120
  H      198.594    -356.832     -71.647
  H      204.886    -358.143     -65.716
  H      198.288    -359.229     -72.075
  H      204.887    -359.729     -66.444
  H      199.009    -358.438     -73.491
  P      201.684    -355.950     -74.220
  C      204.013    -354.878     -74.295
  O      202.719    -354.836     -73.714
  O      200.964    -355.205     -75.443
  O      202.263    -357.265     -74.620
  H      201.543    -355.224     -76.228
  H      204.562    -353.984     -73.985
  H      203.941    -354.891     -75.384
  H      204.552    -355.760     -73.940
  H      202.533    -362.626     -74.064
  H      201.706    -361.118     -74.375
  H      200.823    -362.625     -74.421

 3  4  5  6  7  8  9  10  11  12  13  21  23  27  28  29  30  32 0
 6-311+G(2d,p)
 ****
 34  35 0
 6-311+G(2d,p)
 ****
 1  2  14  15  16  17  18  19  20  22  24  25  26 0
 3-21G
 ****
 31  33  36  37  38  39  40  41  42  43  44  45  46 0
 3-21G
 ****


