%nproc=1
%NoSave
%Mem=1900MB
#P OB98/GEN NMR

erre ene a

0 1
  C      -73.420      15.463     243.593
  O      -73.372      15.592     242.169
  P      -71.946      15.909     241.504
  C      -73.305      15.973     239.281
  O      -72.188      16.459     240.019
  C      -73.692      16.970     238.188
  O      -74.274      18.162     238.750
  C      -72.506      17.455     237.373
  O      -72.122      16.477     236.425
  C      -73.046      18.739     236.749
  O      -73.679      18.485     235.484
  C      -74.080      19.220     237.793
  N      -73.683      20.460     238.448
  C      -74.072      21.639     237.806
  O      -74.693      21.597     236.742
  N      -73.723      22.840     238.377
  C      -73.027      22.856     239.472
  N      -72.707      24.076     239.989
  C      -72.574      21.630     240.164
  C      -72.928      20.476     239.602
  O      -71.327      14.450     241.263
  O      -71.056      16.754     242.356
  H      -74.234      17.690     235.617
  H      -70.355      14.479     241.359
  H      -71.989      21.694     241.072
  H      -72.642      19.528     240.040
  H      -75.054      19.388     237.314
  H      -72.245      19.460     236.568
  H      -71.664      17.693     238.038
  H      -74.434      16.496     237.527
  H      -73.032      24.891     239.488
  H      -74.155      15.807     239.948
  H      -72.165      24.203     240.828
  H      -73.047      14.998     238.853
  P      -70.845      15.567     236.763
  C      -71.684      13.385     235.689
  O      -70.788      14.473     235.586
  O      -71.379      14.690     237.998
  O      -69.570      16.267     237.086
  H      -70.653      14.154     238.367
  H      -71.690      12.841     234.744
  H      -72.697      13.738     235.906
  H      -71.349      12.707     236.482
  H      -74.424      15.254     243.899
  H      -73.093      16.376     244.045
  H      -72.779      14.663     243.900

 3  4  5  6  7  8  9  10  11  12  13  21  23  27  28  29  30  32 0
 6-311+G(2d,p)
 ****
 34  35 0
 6-311+G(2d,p)
 ****
 1  2  14  15  16  17  18  19  20  22  24  25  26 0
 3-21G
 ****
 31  33  36  37  38  39  40  41  42  43  44  45  46 0
 3-21G
 ****


