%nproc=1
%NoSave
%Mem=1900MB
#P OB98/GEN NMR

erre ene a

0 1
  C     -175.805     -36.514    -341.693
  O     -176.323     -35.386    -342.371
  H     -176.610     -37.242    -341.563
  H     -175.427     -36.225    -340.708
  H     -175.006     -36.968    -342.284
  P     -175.305     -34.173    -342.631
  C     -177.146     -32.540    -341.853
  O     -176.258     -32.906    -342.910
  C     -178.442     -31.957    -342.432
  O     -179.139     -33.007    -343.151
  C     -179.392     -31.412    -341.366
  O     -180.027     -30.230    -341.857
  C     -180.422     -32.519    -341.207
  O     -181.677     -32.027    -340.728
  C     -180.479     -33.096    -342.624
  N     -184.444     -36.146    -341.628
  C     -184.331     -34.805    -341.676
  N     -183.229     -34.066    -341.966
  C     -182.193     -34.870    -342.278
  C     -182.161     -36.249    -342.268
  C     -183.360     -36.907    -341.913
  N     -183.481     -38.273    -341.841
  N     -180.897     -36.711    -342.596
  C     -180.189     -35.616    -342.814
  N     -180.922     -34.479    -342.611
  O     -174.253     -34.418    -343.657
  O     -174.764     -33.879    -341.153
  H     -182.093     -31.513    -341.453
  H     -175.493     -33.884    -340.501
  H     -185.231     -34.240    -341.442
  H     -179.141     -35.597    -343.104
  H     -181.153     -32.542    -343.287
  H     -180.056     -33.265    -340.496
  H     -178.884     -31.198    -340.423
  H     -178.189     -31.186    -343.170
  H     -176.677     -31.796    -341.203
  H     -184.379     -38.659    -341.592
  H     -182.689     -38.857    -342.073
  H     -177.361     -33.435    -341.269
  P     -179.444     -28.807    -341.401
  C     -181.791     -27.720    -341.368
  O     -180.465     -27.654    -341.894
  O     -178.008     -28.558    -341.713
  O     -179.694     -28.825    -339.817
  H     -178.941     -28.380    -339.376
  H     -182.372     -26.912    -341.762
  H     -181.756     -27.647    -340.301
  H     -182.239     -28.651    -341.647

 6  7  8  9  10  11  12  13  14  15  25  28  32  33  34  35 0
 6-311+G(2d,p)
 ****
 36  39  40 0
 6-311+G(2d,p)
 ****
 1  2  3  4  5  16  17  18  19  20  21  22  23  24 0
 3-21G
 ****
 26  27  29  30  31  37  38  41  42  43  44  45  46  47 0
 3-21G
 ****
 48 0
 3-21G
 ****


