%nproc=1
%NoSave
%Mem=1900MB
#P OB98/GEN NMR

erre ene a

0 1
  C      -11.954     -57.959    -322.213
  O      -11.036     -58.114    -321.138
  P      -11.622     -58.250    -319.651
  C      -11.736     -55.701    -319.194
  O      -12.460     -56.916    -319.350
  C      -12.289     -54.873    -318.034
  O      -13.664     -54.509    -318.335
  C      -12.296     -55.592    -316.682
  O      -12.082     -54.596    -315.667
  C      -13.720     -56.105    -316.569
  O      -14.092     -56.387    -315.221
  C      -14.475     -54.952    -317.221
  N      -19.040     -56.820    -315.838
  C      -17.939     -56.505    -315.119
  N      -16.761     -56.013    -315.559
  C      -16.788     -55.850    -316.892
  C      -17.818     -56.159    -317.762
  C      -19.000     -56.663    -317.186
  N      -20.124     -56.973    -317.914
  N      -17.456     -55.875    -319.065
  C      -16.226     -55.407    -318.987
  N      -15.792     -55.351    -317.691
  O      -10.314     -58.089    -318.742
  O      -12.328     -59.535    -319.362
  H      -13.765     -57.277    -314.992
  H      -10.104     -58.940    -318.307
  H      -18.021     -56.666    -314.046
  H      -15.617     -55.102    -319.825
  H      -14.609     -54.102    -316.539
  H      -13.829     -57.033    -317.151
  H      -11.550     -56.392    -316.593
  H      -11.714     -53.939    -317.972
  H      -11.823     -55.118    -320.114
  H      -20.967     -57.202    -317.416
  H      -20.170     -56.684    -318.885
  H      -10.675     -55.927    -319.022
  P      -10.868     -54.847    -314.652
  C      -12.637     -55.275    -312.801
  O      -11.455     -55.716    -313.436
  O      -10.624     -53.404    -314.002
  O       -9.627     -55.385    -315.297
  H       -9.690     -53.316    -313.718
  H      -13.211     -56.146    -312.470
  H      -13.261     -54.669    -313.468
  H      -12.364     -54.670    -311.923
  H      -11.415     -57.882    -323.134
  H      -12.532     -57.071    -322.063
  H      -12.606     -58.807    -322.251

 3  4  5  6  7  8  9  10  11  12  22  25  29  30  31  32 0
 6-311+G(2d,p)
 ****
 33  36  37 0
 6-311+G(2d,p)
 ****
 1  2  13  14  15  16  17  18  19  20  21  23  24  26 0
 3-21G
 ****
 27  28  34  35  38  39  40  41  42  43  44  45  46  47  48 0
 3-21G
 ****


