%nproc=1
%NoSave
%Mem=1900MB
#P OB98/GEN NMR

erre ene a

0 1
  C     -215.055     179.035    -322.744
  O     -215.684     179.114    -321.482
  H     -214.029     178.677    -322.607
  H     -215.018     180.020    -323.216
  H     -215.584     178.329    -323.397
  P     -217.238     179.483    -321.410
  C     -216.634     181.825    -320.514
  O     -217.396     180.635    -320.307
  C     -216.797     182.760    -319.317
  O     -218.064     183.457    -319.390
  C     -216.794     182.042    -317.969
  O     -215.487     181.655    -317.609
  C     -217.430     183.105    -317.085
  O     -216.470     184.115    -316.725
  C     -218.501     183.706    -318.035
  N     -219.835     183.142    -317.801
  C     -220.835     184.064    -317.491
  O     -220.643     185.273    -317.404
  N     -222.074     183.522    -317.237
  C     -222.377     182.194    -317.172
  O     -223.430     181.758    -316.731
  C     -221.296     181.279    -317.575
  C     -220.089     181.786    -317.852
  O     -218.174     178.330    -321.259
  O     -217.502     180.267    -322.789
  H     -217.928     179.666    -323.422
  H     -215.911     183.729    -316.020
  H     -222.804     184.176    -316.960
  H     -221.512     180.211    -317.604
  H     -219.269     181.127    -318.125
  H     -218.563     184.789    -317.911
  H     -217.824     182.697    -316.154
  H     -217.461     181.171    -318.006
  H     -215.996     183.513    -319.356
  H     -217.011     182.326    -321.416
  H     -215.585     181.562    -320.660
  P     -215.160     180.157    -317.164
  C     -214.398     180.951    -314.844
  O     -214.048     180.207    -316.004
  O     -214.839     179.214    -318.282
  O     -216.475     179.683    -316.379
  H     -216.793     178.837    -316.766
  H     -213.591     180.918    -314.142
  H     -215.275     180.528    -314.400
  H     -214.591     181.967    -315.117

 6  7  8  9  10  11  12  13  14  15  16  27  31  32  33  34  35 0
 6-311+G(2d,p)
 ****
 36  37 0
 6-311+G(2d,p)
 ****
 1  2  3  4  5  17  18  19  20  21  22  23  24  25 0
 3-21G
 ****
 26  28  29  30  38  39  40  41  42  43  44  45 0
 3-21G
 ****


