%nproc=1
%NoSave
%Mem=1900MB
#P OB98/GEN NMR

erre ene a

0 1
  C      186.562     116.204      69.870
  O      187.567     116.564      70.796
  H      186.845     116.578      68.882
  H      185.605     116.650      70.155
  H      186.466     115.116      69.824
  P      187.282     116.203      72.337
  C      187.213     118.786      72.706
  O      186.579     117.531      72.911
  C      186.181     119.832      72.293
  O      185.356     119.336      71.215
  C      185.203     120.227      73.398
  O      185.757     121.123      74.347
  C      184.120     120.888      72.562
  O      184.568     122.188      72.133
  C      184.029     119.906      71.374
  N      183.034     118.849      71.579
  C      181.732     119.264      71.883
  O      181.456     120.457      71.971
  N      180.773     118.304      72.119
  C      181.079     117.046      72.035
  N      180.087     116.146      72.279
  C      182.432     116.567      71.704
  C      183.349     117.508      71.492
  O      188.736     116.260      73.005
  O      186.534     114.937      72.587
  H      184.680     122.724      72.940
  H      188.657     116.196      73.989
  H      182.643     115.507      71.659
  H      184.368     117.231      71.243
  H      183.786     120.438      70.444
  H      183.187     121.038      73.105
  H      184.779     119.346      73.893
  H      186.724     120.706      71.914
  H      179.184     116.506      72.561
  H      187.965     118.667      71.918
  H      180.260     115.155      72.386
  H      187.709     119.110      73.626
  P      185.951     120.577      75.845
  C      184.470     122.528      76.733
  O      184.714     121.125      76.703
  O      187.187     121.438      76.386
  O      186.201     119.105      75.953
  H      187.734     120.911      77.001
  H      183.615     122.728      77.345
  H      184.287     122.880      75.739
  H      185.324     123.030      77.138

 6  7  8  9  10  11  12  13  14  15  16  26  30  31  32  33  35 0
 6-311+G(2d,p)
 ****
 37  38 0
 6-311+G(2d,p)
 ****
 1  2  3  4  5  17  18  19  20  21  22  23  24  25 0
 3-21G
 ****
 27  28  29  34  36  39  40  41  42  43  44  45  46 0
 3-21G
 ****


