%nproc=1
%NoSave
%Mem=1900MB
#P OB98/GEN NMR

erre ene a

0 1
  C       18.071    -194.791     406.649
  O       18.731    -193.698     407.296
  P       20.154    -193.994     407.981
  C       22.298    -194.515     406.566
  O       21.248    -193.608     406.877
  C       23.298    -193.860     405.618
  O       22.693    -193.621     404.323
  C       23.797    -192.503     406.086
  O       24.737    -192.630     407.144
  C       24.374    -191.942     404.787
  O       25.684    -192.484     404.546
  C       23.380    -192.487     403.740
  N       22.439    -191.479     403.266
  C       22.997    -190.417     402.558
  O       24.206    -190.303     402.347
  N       22.114    -189.473     402.105
  C       20.765    -189.472     402.316
  O       20.024    -188.600     401.876
  C       20.243    -190.590     403.113
  C       21.088    -191.530     403.548
  O       20.157    -195.592     408.008
  O       20.310    -193.334     409.311
  H       19.718    -195.985     407.234
  H       25.584    -193.459     404.556
  H       22.497    -188.701     401.577
  H       19.178    -190.608     403.324
  H       20.724    -192.365     404.141
  H       23.927    -192.879     402.871
  H       24.468    -190.853     404.806
  H       22.951    -191.881     406.414
  H       24.143    -194.550     405.482
  H       21.887    -195.413     406.092
  H       22.781    -194.827     407.499
  P       24.470    -191.737     408.457
  C       22.226    -191.319     409.730
  O       23.075    -192.233     409.067
  O       24.132    -190.317     407.804
  O       25.624    -191.722     409.409
  H       23.532    -190.383     407.044
  H       21.215    -191.738     409.757
  H       22.192    -190.356     409.222
  H       22.573    -191.180     410.759
  H       17.141    -194.455     406.240
  H       17.887    -195.568     407.361
  H       18.691    -195.167     405.863

 3  4  5  6  7  8  9  10  11  12  13  24  28  29  30  31  32 0
 6-311+G(2d,p)
 ****
 33  34 0
 6-311+G(2d,p)
 ****
 1  2  14  15  16  17  18  19  20  21  22  23  25  26  27 0
 3-21G
 ****
 35  36  37  38  39  40  41  42  43  44  45 0
 3-21G
 ****


