%nproc=1
%NoSave
%Mem=1900MB
#P OB98/GEN NMR

erre ene a

0 1
  C     -594.178     283.181    -591.094
  O     -594.960     284.025    -590.270
  P     -594.336     285.355    -589.635
  C     -593.195     284.280    -587.587
  O     -594.275     285.089    -588.051
  C     -592.546     284.897    -586.350
  O     -591.940     286.167    -586.678
  C     -593.518     285.189    -585.210
  O     -593.845     283.999    -584.526
  C     -592.724     286.199    -584.397
  O     -591.786     285.546    -583.529
  C     -591.986     286.993    -585.498
  N     -592.605     288.284    -585.764
  C     -592.083     289.376    -585.054
  O     -591.174     289.210    -584.242
  N     -592.641     290.615    -585.252
  C     -593.645     290.749    -586.063
  N     -594.156     292.007    -586.207
  C     -594.245     289.622    -586.802
  C     -593.684     288.428    -586.603
  O     -594.998     286.629    -590.041
  O     -592.794     285.276    -590.067
  H     -592.321     285.038    -582.882
  H     -592.678     285.487    -591.026
  H     -595.086     289.788    -587.459
  H     -594.062     287.546    -587.106
  H     -590.942     287.179    -585.201
  H     -593.370     286.821    -583.764
  H     -594.422     285.667    -585.610
  H     -591.749     284.221    -586.002
  H     -593.736     292.741    -585.661
  H     -592.453     284.204    -588.385
  H     -594.952     292.217    -586.783
  H     -593.568     283.271    -587.366
  P     -595.345     283.444    -584.562
  C     -595.732     284.023    -582.088
  O     -595.747     283.002    -583.071
  O     -595.634     282.427    -585.616
  O     -596.226     284.766    -584.786
  H     -596.909     284.575    -585.457
  H     -596.321     283.688    -581.228
  H     -596.159     284.951    -582.478
  H     -594.699     284.197    -581.761
  H     -594.770     282.351    -591.418
  H     -593.335     282.823    -590.540
  H     -593.838     283.731    -591.947

 3  4  5  6  7  8  9  10  11  12  13  23  27  28  29  30  32 0
 6-311+G(2d,p)
 ****
 34  35 0
 6-311+G(2d,p)
 ****
 1  2  14  15  16  17  18  19  20  21  22  24  25  26 0
 3-21G
 ****
 31  33  36  37  38  39  40  41  42  43  44  45  46 0
 3-21G
 ****


