%nproc=1
%NoSave
%Mem=1900MB
#P OB98/GEN NMR

erre ene a

0 1
  C     -205.517    -570.655     -45.733
  O     -205.236    -572.028     -45.994
  P     -203.731    -572.541     -45.757
  C     -203.617    -573.569     -48.149
  O     -203.050    -572.672     -47.211
  C     -203.076    -574.985     -47.921
  O     -203.709    -575.885     -48.874
  C     -201.564    -575.131     -48.102
  O     -201.121    -576.154     -47.190
  C     -201.427    -575.637     -49.535
  O     -200.185    -576.301     -49.771
  C     -202.660    -576.544     -49.623
  N     -202.108    -579.402     -53.761
  C     -201.415    -579.439     -52.553
  N     -200.500    -580.425     -52.423
  N     -201.619    -578.599     -51.580
  C     -202.585    -577.680     -51.853
  C     -203.298    -577.516     -53.018
  C     -203.094    -578.478     -54.077
  O     -203.739    -578.536     -55.128
  N     -204.123    -576.424     -52.949
  C     -203.963    -575.975     -51.717
  N     -203.074    -576.735     -50.997
  O     -203.946    -574.057     -45.298
  O     -202.919    -571.753     -44.773
  H     -200.281    -576.808     -50.605
  H     -203.975    -574.133     -44.325
  H     -201.918    -580.093     -54.470
  H     -204.464    -575.120     -51.298
  H     -202.489    -577.534     -49.185
  H     -201.506    -574.795     -50.230
  H     -200.315    -581.118     -53.118
  H     -201.002    -574.208     -47.928
  H     -200.012    -580.486     -51.537
  H     -203.370    -575.313     -46.915
  H     -203.339    -573.252     -49.160
  H     -204.705    -573.562     -48.070
  P     -199.793    -575.872     -46.327
  C     -198.179    -577.260     -47.805
  O     -198.542    -575.982     -47.327
  O     -199.673    -577.206     -45.444
  O     -199.850    -574.663     -45.461
  H     -199.259    -576.986     -44.578
  H     -197.610    -577.141     -48.736
  H     -199.050    -577.890     -48.006
  H     -197.530    -577.764     -47.071
  H     -206.550    -570.458     -45.933
  H     -204.908    -570.040     -46.363
  H     -205.304    -570.436     -44.708

 3  4  5  6  7  8  9  10  11  12  23  26  30  31 0
 6-311+G(2d,p)
 ****
 33  35  36  37  38 0
 6-311+G(2d,p)
 ****
 1  2  13  14  15  16  17  18  19  20  21  22  24  25 0
 3-21G
 ****
 27  28  29  32  34  39  40  41  42  43  44  45  46  47  48  49 0
 3-21G
 ****


