%nproc=1
%NoSave
%Mem=1900MB
#P OB98/GEN NMR

erre ene a

0 1
  C      100.993     188.468    -433.997
  O      101.311     189.756    -433.454
  P      102.646     189.937    -432.582
  C      104.118     190.472    -434.641
  O      103.922     189.638    -433.503
  C      105.494     191.154    -434.560
  O      106.563     190.176    -434.488
  C      105.809     191.986    -435.791
  O      105.058     193.166    -435.970
  C      107.321     192.129    -435.707
  O      107.699     193.191    -434.824
  C      107.726     190.761    -435.112
  N      108.300     189.859    -436.115
  C      109.636     190.071    -436.440
  O      110.309     190.982    -435.963
  N      110.166     189.217    -437.367
  C      109.498     188.214    -438.013
  O      110.020     187.493    -438.851
  C      108.085     188.054    -437.646
  C      107.557     188.870    -436.733
  O      102.644     189.262    -431.250
  O      102.725     191.531    -432.394
  H      107.252     193.997    -435.136
  H      103.008     191.709    -431.476
  H      111.138     189.352    -437.609
  H      107.521     187.275    -438.144
  H      106.512     188.770    -436.449
  H      108.473     190.891    -434.319
  H      107.761     192.352    -436.683
  H      105.602     191.370    -436.680
  H      105.530     191.752    -433.649
  H      103.329     191.222    -434.690
  H      104.031     189.863    -435.547
  P      103.904     193.322    -437.080
  C      102.039     193.513    -435.288
  O      102.519     192.843    -436.431
  O      104.213     192.849    -438.465
  O      103.707     194.915    -437.111
  H      103.470     195.177    -438.023
  H      101.099     193.047    -434.973
  H      101.852     194.566    -435.505
  H      102.758     193.428    -434.466
  H      100.076     188.529    -434.546
  H      100.886     187.762    -433.200
  H      101.780     188.152    -434.650

 3  4  5  6  7  8  9  10  11  12  13  23  28  29  30  31  32 0
 6-311+G(2d,p)
 ****
 33  34 0
 6-311+G(2d,p)
 ****
 1  2  14  15  16  17  18  19  20  21  22  24  25  26  27 0
 3-21G
 ****
 35  36  37  38  39  40  41  42  43  44  45 0
 3-21G
 ****


