%nproc=1
%NoSave
%Mem=1900MB
#P OB98/GEN NMR

erre ene a

0 1
  C       -7.286     287.571     -70.128
  O       -6.480     287.270     -71.250
  H       -8.100     286.842     -70.076
  H       -7.716     288.569     -70.237
  H       -6.702     287.514     -69.206
  P       -5.111     288.095     -71.394
  C       -5.725     290.045     -72.996
  O       -5.526     289.624     -71.654
  C       -5.455     291.541     -73.126
  O       -6.427     292.295     -72.367
  C       -4.087     291.978     -72.614
  O       -3.068     291.770     -73.585
  C       -4.332     293.459     -72.387
  O       -4.311     294.157     -73.650
  C       -5.753     293.456     -71.807
  N       -5.140     296.035     -67.483
  C       -4.986     296.448     -68.795
  N       -4.607     297.732     -68.981
  N       -5.186     295.676     -69.831
  C       -5.548     294.414     -69.495
  C       -5.733     293.887     -68.236
  C       -5.521     294.754     -67.100
  O       -5.665     294.446     -65.920
  N       -6.115     292.573     -68.294
  C       -6.140     292.299     -69.584
  N       -5.799     293.381     -70.356
  O       -4.541     287.623     -72.816
  O       -4.113     287.873     -70.309
  H       -4.266     295.109     -73.445
  H       -3.567     287.582     -72.766
  H       -4.964     296.667     -66.724
  H       -6.401     291.338     -70.008
  H       -6.326     294.342     -72.101
  H       -3.574     293.921     -71.754
  H       -4.391     298.364     -68.226
  H       -3.841     291.499     -71.659
  H       -4.521     298.067     -69.932
  H       -5.579     291.816     -74.182
  H       -6.758     289.838     -73.288
  H       -5.049     289.482     -73.649
  P       -1.930     290.686     -73.249
  C       -0.052     292.464     -73.009
  O       -0.839     291.465     -72.369
  O       -1.195     290.487     -74.658
  O       -2.432     289.398     -72.690
  H       -0.748     289.619     -74.681
  H        0.626     292.892     -72.300
  H       -0.692     293.228     -73.397
  H        0.502     292.022     -73.811

 6  7  8  9  10  11  12  13  14  15  26  29  33  34 0
 6-311+G(2d,p)
 ****
 36  38  39  40  41 0
 6-311+G(2d,p)
 ****
 1  2  3  4  5  16  17  18  19  20  21  22  23  24  25 0
 3-21G
 ****
 27  28  30  31  32  35  37  42  43  44  45  46  47 0
 3-21G
 ****
 48  49 0
 3-21G
 ****


