%nproc=1
%NoSave
%Mem=1900MB
#P OB98/GEN NMR

erre ene a

0 1
  C       85.683    -151.361      28.629
  O       84.663    -151.230      27.658
  H       85.522    -150.633      29.427
  H       85.632    -152.366      29.056
  H       86.670    -151.215      28.181
  P       84.730    -149.952      26.690
  C       83.220    -148.981      24.811
  O       83.428    -150.028      25.748
  C       82.001    -149.275      23.935
  O       82.391    -150.247      22.919
  C       80.799    -149.854      24.700
  O       79.601    -149.296      24.146
  C       80.856    -151.339      24.361
  O       79.583    -151.969      24.461
  C       81.413    -151.302      22.943
  N       80.333    -156.161      21.901
  C       79.559    -155.058      21.944
  N       79.939    -153.784      22.180
  C       81.277    -153.699      22.313
  C       82.196    -154.741      22.280
  C       81.667    -156.030      22.084
  N       82.439    -157.170      22.105
  N       83.469    -154.259      22.515
  C       83.320    -152.963      22.707
  N       82.011    -152.582      22.596
  O       85.932    -150.336      25.697
  O       84.959    -148.643      27.366
  H       79.196    -151.759      25.334
  H       86.777    -150.047      26.084
  H       78.497    -155.212      21.783
  H       84.112    -152.268      22.957
  H       80.650    -151.078      22.190
  H       81.544    -151.843      25.048
  H       80.830    -149.669      25.776
  H       81.722    -148.357      23.407
  H       84.106    -148.895      24.174
  H       81.963    -158.060      22.057
  H       83.413    -157.099      22.349
  H       83.080    -148.036      25.345
  P       78.989    -148.004      24.871
  C       76.818    -146.586      24.576
  O       77.453    -147.852      24.430
  O       79.707    -146.786      24.123
  O       79.224    -147.971      26.347
  H       79.838    -146.043      24.741
  H       75.805    -146.654      24.239
  H       77.339    -145.856      23.993
  H       76.833    -146.296      25.606

 6  7  8  9  10  11  12  13  14  15  25  28  32  33  34  35 0
 6-311+G(2d,p)
 ****
 36  39  40 0
 6-311+G(2d,p)
 ****
 1  2  3  4  5  16  17  18  19  20  21  22  23  24 0
 3-21G
 ****
 26  27  29  30  31  37  38  41  42  43  44  45  46  47 0
 3-21G
 ****
 48 0
 3-21G
 ****


