%nproc=1
%NoSave
%Mem=1900MB
#P OB98/GEN NMR

erre ene a

0 1
  C       86.193     157.125     -26.768
  O       86.402     158.223     -25.907
  H       85.153     156.802     -26.681
  H       86.841     156.293     -26.477
  H       86.391     157.405     -27.807
  P       87.823     158.964     -25.985
  C       88.204     158.002     -23.606
  O       88.348     159.113     -24.474
  C       88.297     158.451     -22.146
  O       89.638     158.946     -21.895
  C       87.311     159.562     -21.779
  O       86.827     159.326     -20.454
  C       88.161     160.817     -21.790
  O       87.630     161.849     -20.959
  C       89.525     160.272     -21.346
  N       90.616     161.138     -21.787
  C       91.227     161.925     -20.808
  O       90.835     161.879     -19.639
  N       92.225     162.788     -21.177
  C       92.526     162.921     -22.433
  N       93.504     163.817     -22.742
  C       91.860     162.161     -23.509
  C       90.931     161.290     -23.117
  O       87.437     160.463     -26.388
  O       88.809     158.358     -26.926
  H       86.793     162.168     -21.360
  H       88.135     160.874     -26.931
  H       92.130     162.323     -24.543
  H       90.382     160.692     -23.837
  H       89.567     160.183     -20.252
  H       88.224     161.209     -22.814
  H       86.461     159.631     -22.468
  H       88.157     157.573     -21.504
  H       93.924     164.332     -21.976
  H       89.005     157.285     -23.808
  H       93.787     164.033     -23.686
  H       87.240     157.515     -23.793
  P       85.443     158.529     -20.322
  C       83.966     160.667     -20.251
  O       84.384     159.483     -19.583
  O       85.763     157.404     -19.231
  O       84.969     157.935     -21.607
  H       85.812     156.529     -19.661
  H       83.265     161.194     -19.638
  H       83.503     160.408     -21.180
  H       84.816     161.290     -20.438

 6  7  8  9  10  11  12  13  14  15  16  26  30  31  32  33  35 0
 6-311+G(2d,p)
 ****
 37  38 0
 6-311+G(2d,p)
 ****
 1  2  3  4  5  17  18  19  20  21  22  23  24  25 0
 3-21G
 ****
 27  28  29  34  36  39  40  41  42  43  44  45  46 0
 3-21G
 ****


