%nproc=1
%NoSave
%Mem=1900MB
#P OB98/GEN NMR

erre ene a

0 1
  C       23.101     -94.557     -84.045
  O       24.338     -94.173     -83.451
  P       25.673     -93.832     -84.252
  C       26.779     -92.395     -82.347
  O       26.837     -93.532     -83.199
  C       25.920     -92.678     -81.106
  O       26.394     -93.909     -80.480
  C       26.021     -91.568     -80.054
  O       24.773     -91.233     -79.457
  C       27.117     -92.075     -79.133
  O       27.107     -91.464     -77.852
  C       26.884     -93.583     -79.160
  N       29.240     -96.682     -75.858
  C       28.057     -95.988     -75.714
  N       27.417     -96.118     -74.533
  N       27.549     -95.219     -76.640
  C       28.325     -95.113     -77.741
  C       29.525     -95.738     -77.995
  C       30.052     -96.628     -76.983
  O       31.086     -97.282     -77.068
  N       30.015     -95.394     -79.229
  C       29.126     -94.549     -79.711
  N       28.075     -94.352     -78.846
  O       25.527     -92.873     -85.385
  O       26.117     -95.253     -84.876
  H       26.202     -91.534     -77.495
  H       26.558     -95.053     -85.726
  H       29.573     -97.279     -75.120
  H       29.184     -94.065     -80.679
  H       26.127     -93.895     -78.436
  H       28.080     -91.828     -79.598
  H       27.811     -96.593     -73.736
  H       26.344     -90.627     -80.514
  H       26.675     -95.441     -74.352
  H       24.883     -92.838     -81.424
  H       26.322     -91.597     -82.942
  H       27.781     -92.068     -82.068
  P       24.214     -89.793     -79.055
  C       21.713     -89.816     -79.620
  O       22.686     -89.948     -78.601
  O       24.097     -88.993     -80.435
  O       25.070     -89.038     -78.091
  H       24.681     -88.210     -80.412
  H       20.733     -89.675     -79.154
  H       21.689     -90.725     -80.227
  H       21.931     -88.954     -80.256
  H       22.374     -94.726     -83.278
  H       23.240     -95.456     -84.609
  H       22.760     -93.778     -84.694

 3  4  5  6  7  8  9  10  11  12  23  26  30  31 0
 6-311+G(2d,p)
 ****
 33  35  36  37  38 0
 6-311+G(2d,p)
 ****
 1  2  13  14  15  16  17  18  19  20  21  22  24  25 0
 3-21G
 ****
 27  28  29  32  34  39  40  41  42  43  44  45  46  47  48  49 0
 3-21G
 ****


