%nproc=1
%NoSave
%Mem=1900MB
#P OB98/GEN NMR

erre ene a

0 1
  C     -135.595     660.299     -93.417
  O     -134.828     660.535     -92.257
  H     -136.590     659.961     -93.117
  H     -135.121     659.514     -94.017
  H     -135.698     661.206     -94.017
  P     -133.470     661.372     -92.389
  C     -131.790     659.520     -91.745
  O     -132.419     660.731     -91.357
  C     -130.721     659.100     -90.727
  O     -129.642     660.066     -90.732
  C     -131.307     659.096     -89.312
  O     -130.657     658.154     -88.464
  C     -131.007     660.503     -88.818
  O     -131.005     660.606     -87.397
  C     -129.648     660.755     -89.469
  N     -128.161     665.161     -87.384
  C     -128.456     663.960     -86.772
  N     -128.364     663.937     -85.425
  N     -128.822     662.884     -87.422
  C     -128.946     663.078     -88.757
  C     -128.706     664.226     -89.478
  C     -128.264     665.396     -88.753
  O     -128.004     666.492     -89.242
  N     -128.960     664.042     -90.813
  C     -129.356     662.788     -90.901
  N     -129.352     662.156     -89.681
  O     -133.817     662.775     -91.701
  O     -132.953     661.557     -93.782
  H     -130.714     661.509     -87.170
  H     -133.240     663.476     -92.048
  H     -127.868     665.953     -86.843
  H     -129.650     662.290     -91.816
  H     -128.841     660.338     -88.853
  H     -131.790     661.170     -89.191
  H     -128.257     664.777     -84.876
  H     -132.378     658.891     -89.312
  H     -128.850     663.174     -84.947
  H     -130.288     658.136     -91.009
  H     -131.327     659.695     -92.723
  H     -132.531     658.729     -91.872
  P     -131.559     657.011     -87.797
  C     -131.854     657.779     -85.306
  O     -131.189     656.948     -86.238
  O     -130.956     655.658     -88.400
  O     -133.014     657.154     -88.080
  H     -131.558     655.292     -89.075
  H     -131.471     657.592     -84.325
  H     -132.903     657.569     -85.325
  H     -131.691     658.805     -85.563

 6  7  8  9  10  11  12  13  14  15  26  29  33  34 0
 6-311+G(2d,p)
 ****
 36  38  39  40  41 0
 6-311+G(2d,p)
 ****
 1  2  3  4  5  16  17  18  19  20  21  22  23  24  25 0
 3-21G
 ****
 27  28  30  31  32  35  37  42  43  44  45  46  47 0
 3-21G
 ****
 48  49 0
 3-21G
 ****


