%nproc=1
%NoSave
%Mem=1900MB
#P OB98/GEN NMR

erre ene a

0 1
  C      -70.116     143.868    -222.511
  O      -69.837     145.156    -223.015
  H      -71.190     143.789    -222.329
  H      -69.588     143.712    -221.568
  H      -69.822     143.103    -223.235
  P      -68.307     145.485    -223.380
  C      -68.960     145.270    -225.890
  O      -68.088     144.860    -224.846
  C      -68.357     144.928    -227.255
  O      -67.065     145.567    -227.377
  C      -68.160     143.426    -227.470
  O      -68.565     143.082    -228.796
  C      -66.666     143.220    -227.294
  O      -66.191     142.079    -228.006
  C      -66.101     144.568    -227.757
  N      -64.792     144.839    -227.166
  C      -63.681     144.300    -227.821
  O      -63.831     143.620    -228.837
  N      -62.435     144.495    -227.282
  C      -62.312     145.121    -226.154
  N      -61.054     145.263    -225.660
  C      -63.461     145.666    -225.403
  C      -64.657     145.495    -225.964
  O      -67.491     144.499    -222.423
  O      -67.916     146.919    -223.251
  H      -65.234     141.974    -227.803
  H      -66.534     144.741    -222.386
  H      -63.310     146.166    -224.459
  H      -65.558     145.860    -225.483
  H      -66.003     144.591    -228.851
  H      -66.444     143.067    -226.231
  H      -68.721     142.818    -226.762
  H      -68.995     145.360    -228.034
  H      -60.292     144.868    -226.197
  H      -69.117     146.350    -225.818
  H      -60.844     145.707    -224.777
  H      -69.922     144.759    -225.777
  P      -70.130     142.781    -228.995
  C      -71.313     144.314    -230.720
  O      -70.842     144.167    -229.389
  O      -70.646     142.491    -227.510
  O      -70.406     141.648    -229.926
  H      -70.716     141.531    -227.354
  H      -71.760     145.279    -230.836
  H      -72.040     143.557    -230.927
  H      -70.494     144.217    -231.401

 6  7  8  9  10  11  12  13  14  15  16  26  30  31  32  33  35 0
 6-311+G(2d,p)
 ****
 37  38 0
 6-311+G(2d,p)
 ****
 1  2  3  4  5  17  18  19  20  21  22  23  24  25 0
 3-21G
 ****
 27  28  29  34  36  39  40  41  42  43  44  45  46 0
 3-21G
 ****


