%nproc=1
%NoSave
%Mem=1900MB
#P OB98/GEN NMR

erre ene a

0 1
  C      104.967    -250.415     -97.130
  O      106.020    -250.899     -97.966
  P      105.796    -251.078     -99.546
  C      108.001    -250.088    -100.393
  O      107.225    -251.273    -100.260
  C      109.374    -250.324    -101.033
  O      110.345    -250.742    -100.040
  C      109.392    -251.372    -102.152
  O      110.386    -250.934    -103.082
  C      109.850    -252.621    -101.417
  O      110.353    -253.620    -102.290
  C      110.872    -252.023    -100.440
  N      111.118    -252.892     -99.292
  C      111.958    -253.987     -99.495
  O      112.410    -254.223    -100.618
  N      112.228    -254.823     -98.437
  C      111.629    -254.632     -97.302
  N      111.915    -255.503     -96.297
  C      110.664    -253.539     -97.066
  C      110.469    -252.708     -98.093
  O      104.927    -250.038    -100.176
  O      105.122    -252.530     -99.677
  H      111.194    -253.299    -102.681
  H      104.536    -252.540    -100.460
  H      110.169    -253.433     -96.110
  H      109.786    -251.872     -98.018
  H      111.832    -251.842    -100.943
  H      109.009    -253.057    -100.862
  H      108.424    -251.501    -102.641
  H      109.723    -249.359    -101.422
  H      112.559    -256.258     -96.508
  H      108.141    -249.650     -99.398
  H      111.423    -255.514     -95.417
  H      107.435    -249.359    -100.989
  P      110.098    -250.856    -104.654
  C      111.114    -248.514    -104.825
  O      111.181    -249.855    -105.279
  O      108.682    -250.549    -105.021
  O      110.544    -252.289    -105.229
  H      110.149    -252.420    -106.108
  H      112.012    -247.985    -105.146
  H      111.048    -248.476    -103.733
  H      110.241    -248.021    -105.260
  H      105.309    -250.366     -96.117
  H      104.129    -251.078     -97.192
  H      104.674    -249.438     -97.455

 3  4  5  6  7  8  9  10  11  12  13  23  27  28  29  30  32 0
 6-311+G(2d,p)
 ****
 34  35 0
 6-311+G(2d,p)
 ****
 1  2  14  15  16  17  18  19  20  21  22  24  25  26 0
 3-21G
 ****
 31  33  36  37  38  39  40  41  42  43  44  45  46 0
 3-21G
 ****


