%nproc=1
%NoSave
%Mem=1900MB
#P OB98/GEN NMR

erre ene a

0 1
  C     -119.064    -455.882    -354.985
  O     -120.298    -455.241    -355.241
  H     -118.426    -455.766    -355.865
  H     -119.218    -456.947    -354.802
  H     -118.564    -455.422    -354.128
  P     -121.424    -455.267    -354.096
  C     -123.155    -455.655    -355.989
  O     -122.628    -456.112    -354.751
  C     -123.447    -456.839    -356.908
  O     -122.225    -457.453    -357.379
  C     -124.219    -457.982    -356.254
  O     -125.592    -457.698    -356.039
  C     -124.010    -459.066    -357.295
  O     -124.859    -458.819    -358.430
  C     -122.519    -458.850    -357.651
  N     -121.625    -459.720    -356.888
  C     -121.877    -461.095    -356.958
  O     -122.815    -461.528    -357.624
  N     -121.078    -461.951    -356.237
  C     -120.124    -461.479    -355.494
  N     -119.369    -462.368    -354.799
  C     -119.839    -460.034    -355.374
  C     -120.615    -459.224    -356.092
  O     -121.808    -453.941    -353.523
  O     -120.865    -456.299    -353.006
  H     -124.690    -457.901    -358.717
  H     -121.522    -456.341    -352.269
  H     -119.053    -459.684    -354.720
  H     -120.471    -458.148    -356.051
  H     -122.344    -459.015    -358.723
  H     -124.242    -460.070    -356.929
  H     -123.735    -458.298    -355.323
  H     -123.974    -456.449    -357.787
  H     -119.590    -463.351    -354.900
  H     -122.422    -454.979    -356.441
  H     -118.659    -462.084    -354.138
  H     -124.088    -455.108    -355.822
  P     -126.150    -457.897    -354.546
  C     -128.228    -459.252    -355.352
  O     -127.044    -459.225    -354.573
  O     -127.207    -456.714    -354.392
  O     -125.106    -457.882    -353.468
  H     -126.817    -455.956    -353.914
  H     -128.697    -460.209    -355.255
  H     -127.983    -459.078    -356.379
  H     -128.897    -458.490    -355.010

 6  7  8  9  10  11  12  13  14  15  16  26  30  31  32  33  35 0
 6-311+G(2d,p)
 ****
 37  38 0
 6-311+G(2d,p)
 ****
 1  2  3  4  5  17  18  19  20  21  22  23  24  25 0
 3-21G
 ****
 27  28  29  34  36  39  40  41  42  43  44  45  46 0
 3-21G
 ****


