%nproc=1
%NoSave
%Mem=1900MB
#P OB98/GEN NMR

erre ene a

0 1
  C      -82.271       8.476      69.591
  O      -83.239       7.901      68.743
  H      -81.965       9.437      69.166
  H      -81.390       7.836      69.665
  H      -82.691       8.653      70.585
  P      -83.726       6.397      69.025
  C      -82.490       5.494      66.966
  O      -83.761       5.695      67.573
  C      -82.569       5.625      65.444
  O      -83.372       4.545      64.903
  C      -83.188       6.944      64.969
  O      -82.382       7.499      63.926
  C      -84.546       6.530      64.423
  O      -85.047       7.455      63.464
  C      -84.237       5.120      63.906
  N      -85.434       4.314      63.697
  C      -86.406       4.849      62.847
  O      -86.247       5.964      62.345
  N      -87.551       4.132      62.614
  C      -87.736       3.002      63.218
  N      -88.897       2.344      62.954
  C      -86.758       2.420      64.161
  C      -85.639       3.119      64.346
  O      -84.993       6.288      69.805
  O      -82.476       5.695      69.733
  H      -85.175       8.323      63.907
  H      -82.783       4.890      70.219
  H      -86.963       1.479      64.650
  H      -84.860       2.765      65.013
  H      -83.682       5.166      62.959
  H      -85.269       6.471      65.247
  H      -83.285       7.685      65.758
  H      -81.561       5.488      65.036
  H      -89.539       2.775      62.302
  H      -82.122       4.500      67.245
  H      -89.149       1.460      63.372
  H      -81.802       6.254      67.355
  P      -81.437       8.729      64.342
  C      -82.699      10.818      63.474
  O      -81.641       9.897      63.259
  O      -79.966       8.175      64.037
  O      -81.589       9.146      65.767
  H      -79.539       7.882      64.864
  H      -82.715      11.535      62.680
  H      -82.549      11.322      64.406
  H      -83.630      10.292      63.499

 6  7  8  9  10  11  12  13  14  15  16  26  30  31  32  33  35 0
 6-311+G(2d,p)
 ****
 37  38 0
 6-311+G(2d,p)
 ****
 1  2  3  4  5  17  18  19  20  21  22  23  24  25 0
 3-21G
 ****
 27  28  29  34  36  39  40  41  42  43  44  45  46 0
 3-21G
 ****


