%nproc=1
%NoSave
%Mem=1900MB
#P OB98/GEN NMR

erre ene a

0 1
  C      576.380    -604.380    -235.886
  O      575.829    -605.035    -237.012
  H      577.040    -603.581    -236.237
  H      576.972    -605.082    -235.297
  H      575.591    -603.940    -235.270
  P      574.744    -606.190    -236.782
  C      572.422    -606.783    -237.726
  O      573.482    -605.837    -237.714
  C      571.133    -606.141    -238.222
  O      570.703    -605.154    -237.248
  C      571.272    -605.438    -239.574
  O      570.067    -605.644    -240.318
  C      571.392    -603.970    -239.201
  O      570.943    -603.108    -240.238
  C      570.537    -603.896    -237.934
  N      569.569    -599.079    -236.782
  C      568.916    -599.931    -237.648
  N      567.859    -599.434    -238.325
  N      569.265    -601.186    -237.836
  C      570.330    -601.557    -237.075
  C      571.060    -600.801    -236.189
  C      570.667    -599.421    -236.004
  O      571.212    -598.610    -235.262
  N      572.087    -601.536    -235.637
  C      571.971    -602.727    -236.196
  N      570.929    -602.788    -237.082
  O      574.395    -606.472    -235.351
  O      575.380    -607.473    -237.498
  H      570.761    -602.234    -239.831
  H      575.793    -608.065    -236.839
  H      569.256    -598.122    -236.688
  H      572.619    -603.574    -235.995
  H      569.467    -603.766    -238.157
  H      572.440    -603.731    -238.980
  H      567.525    -598.488    -238.223
  H      572.132    -605.790    -240.152
  H      567.350    -600.051    -238.949
  H      570.353    -606.909    -238.253
  H      572.283    -607.159    -236.708
  H      572.701    -607.623    -238.378
  P      570.094    -606.657    -241.562
  C      568.429    -608.137    -242.860
  O      568.600    -607.184    -241.812
  O      571.144    -607.717    -241.509
  O      570.325    -605.679    -242.813
  H      570.822    -606.170    -243.509
  H      567.397    -608.410    -242.929
  H      569.015    -609.007    -242.650
  H      568.747    -607.708    -243.787

 6  7  8  9  10  11  12  13  14  15  26  29  33  34 0
 6-311+G(2d,p)
 ****
 36  38  39  40  41 0
 6-311+G(2d,p)
 ****
 1  2  3  4  5  16  17  18  19  20  21  22  23  24  25 0
 3-21G
 ****
 27  28  30  31  32  35  37  42  43  44  45  46  47 0
 3-21G
 ****
 48  49 0
 3-21G
 ****


