%nproc=1
%NoSave
%Mem=1900MB
#P OB98/GEN NMR

erre ene a

0 1
  C     -183.572    -488.295     572.222
  O     -183.600    -489.685     572.468
  H     -183.024    -488.077     571.305
  H     -184.600    -487.933     572.105
  H     -183.118    -487.768     573.065
  P     -182.183    -490.414     572.631
  C     -182.447    -490.630     575.211
  O     -181.676    -490.112     574.129
  C     -181.986    -490.010     576.532
  O     -182.112    -488.560     576.417
  C     -182.789    -490.465     577.764
  O     -181.907    -491.049     578.730
  C     -183.351    -489.177     578.344
  O     -183.315    -489.126     579.764
  C     -182.482    -488.083     577.715
  N     -185.400    -484.771     580.273
  C     -184.540    -485.722     580.706
  N     -183.707    -486.498     579.969
  C     -183.813    -486.206     578.663
  C     -184.637    -485.255     578.077
  C     -185.478    -484.528     578.944
  N     -186.409    -483.623     578.507
  N     -184.488    -485.247     576.700
  C     -183.621    -486.206     576.447
  N     -183.191    -486.829     577.613
  O     -181.208    -489.535     571.715
  O     -182.158    -491.854     572.241
  H     -183.869    -489.865     580.079
  H     -180.672    -490.118     571.150
  H     -184.497    -485.870     581.769
  H     -183.298    -486.531     575.472
  H     -181.565    -487.923     578.290
  H     -184.403    -489.067     578.026
  H     -183.590    -491.163     577.517
  H     -180.924    -490.232     576.667
  H     -182.317    -491.725     575.274
  H     -187.051    -483.217     579.182
  H     -186.541    -483.504     577.505
  H     -183.505    -490.425     575.029
  P     -181.770    -492.647     578.698
  C     -179.304    -492.502     577.846
  O     -180.629    -493.012     577.640
  O     -183.117    -493.126     577.973
  O     -181.624    -493.267     580.054
  H     -183.366    -494.029     578.248
  H     -178.666    -492.836     577.055
  H     -178.927    -492.857     578.782
  H     -179.331    -491.432     577.855

 6  7  8  9  10  11  12  13  14  15  25  28  32  33  34  35 0
 6-311+G(2d,p)
 ****
 36  39  40 0
 6-311+G(2d,p)
 ****
 1  2  3  4  5  16  17  18  19  20  21  22  23  24 0
 3-21G
 ****
 26  27  29  30  31  37  38  41  42  43  44  45  46  47  48 0
 3-21G
 ****


