%nproc=1
%NoSave
%Mem=1900MB
#P OB98/GEN NMR

erre ene a

0 1
  C       29.239     187.781      29.520
  O       30.442     188.156      30.156
  H       29.364     186.784      29.091
  H       29.000     188.482      28.717
  H       28.423     187.754      30.246
  P       30.492     189.622      30.806
  C       31.736     191.839      30.272
  O       31.457     190.504      29.876
  C       32.658     192.494      29.250
  O       33.945     191.836      29.257
  C       32.162     192.398      27.815
  O       31.148     193.346      27.533
  C       33.446     192.664      27.047
  O       33.700     194.071      26.916
  C       34.511     191.989      27.939
  N       34.966     190.718      27.387
  C       36.009     190.797      26.470
  O       36.529     191.859      26.131
  N       36.414     189.611      25.921
  C       35.864     188.388      26.165
  O       36.225     187.373      25.585
  C       34.774     188.363      27.155
  C       34.374     189.512      27.704
  O       31.348     189.398      32.139
  O       29.161     190.234      31.087
  H       30.757     189.373      32.914
  H       33.734     194.427      27.825
  H       37.162     189.650      25.246
  H       34.318     187.406      27.377
  H       33.558     189.521      28.421
  H       35.386     192.642      28.047
  H       33.402     192.255      26.038
  H       31.823     191.379      27.597
  H       32.808     193.543      29.539
  H       32.231     191.834      31.249
  H       30.794     192.390      30.358
  P       29.734     192.818      26.992
  C       28.855     192.245      24.584
  O       29.956     192.412      25.457
  O       28.901     194.180      26.919
  O       29.128     191.752      27.840
  H       29.443     194.943      26.657
  H       29.209     191.976      23.611
  H       28.306     193.161      24.523
  H       28.218     191.471      24.958

 6  7  8  9  10  11  12  13  14  15  16  27  31  32  33  34  35 0
 6-311+G(2d,p)
 ****
 36  37 0
 6-311+G(2d,p)
 ****
 1  2  3  4  5  17  18  19  20  21  22  23  24  25 0
 3-21G
 ****
 26  28  29  30  38  39  40  41  42  43  44  45 0
 3-21G
 ****


