%nproc=1
%NoSave
%Mem=1900MB
#P OB98/GEN NMR

erre ene a

0 1
  C     1085.186     303.428    -340.965
  O     1084.960     302.879    -342.252
  P     1084.655     303.847    -343.495
  C     1086.846     303.564    -344.814
  O     1086.053     304.433    -344.019
  C     1086.709     303.904    -346.298
  O     1087.167     305.253    -346.556
  C     1087.533     303.022    -347.210
  O     1086.987     301.720    -347.342
  C     1087.519     303.844    -348.502
  O     1086.294     303.657    -349.221
  C     1087.604     305.281    -347.936
  N     1088.934     305.857    -348.070
  C     1089.487     305.843    -349.365
  O     1088.894     305.283    -350.283
  N     1090.701     306.445    -349.554
  C     1091.361     306.904    -348.539
  N     1092.539     307.544    -348.802
  C     1090.885     306.800    -347.149
  C     1089.663     306.293    -346.994
  O     1083.591     304.863    -343.269
  O     1084.240     302.834    -344.673
  H     1083.390     303.147    -345.065
  H     1086.236     302.713    -349.435
  H     1091.501     307.143    -346.333
  H     1089.217     306.199    -346.000
  H     1086.883     305.932    -348.464
  H     1088.342     303.582    -349.171
  H     1088.558     302.951    -346.836
  H     1085.649     303.843    -346.558
  H     1092.825     307.620    -349.779
  H     1086.511     302.534    -344.646
  H     1092.955     308.217    -348.149
  H     1087.899     303.644    -344.499
  P     1088.022     300.505    -347.477
  C     1087.260     298.885    -345.615
  O     1088.200     299.850    -346.028
  O     1089.411     301.238    -347.738
  O     1087.706     299.541    -348.568
  H     1089.948     300.715    -348.371
  H     1087.704     298.296    -344.795
  H     1086.999     298.203    -346.427
  H     1086.352     299.378    -345.237
  H     1085.371     302.638    -340.268
  H     1084.323     303.981    -340.657
  H     1086.034     304.080    -340.999

 3  4  5  6  7  8  9  10  11  12  13  24  27  28  29  30  32 0
 6-311+G(2d,p)
 ****
 34  35 0
 6-311+G(2d,p)
 ****
 1  2  14  15  16  17  18  19  20  21  22  23  25  26 0
 3-21G
 ****
 31  33  36  37  38  39  40  41  42  43  44  45  46 0
 3-21G
 ****


