%nproc=1
%NoSave
%Mem=1900MB
#P OB98/GEN NMR

erre ene a

0 1
  C     -212.448     284.405    -106.519
  O     -211.673     285.469    -106.000
  H     -211.785     283.563    -106.736
  H     -212.939     284.715    -107.445
  H     -213.193     284.088    -105.784
  P     -212.470     286.800    -105.590
  C     -210.661     288.086    -106.923
  O     -211.371     287.964    -105.698
  C     -209.319     288.777    -106.696
  O     -209.509     290.181    -106.449
  C     -208.532     288.249    -105.500
  O     -207.843     287.056    -105.833
  C     -207.574     289.403    -105.257
  O     -206.480     289.336    -106.192
  C     -208.450     290.635    -105.562
  N     -208.436     294.797    -102.556
  C     -207.599     294.397    -103.537
  N     -207.639     293.257    -104.264
  C     -208.680     292.495    -103.894
  C     -209.614     292.772    -102.910
  C     -209.475     293.991    -102.231
  N     -210.338     294.406    -101.238
  N     -210.538     291.750    -102.810
  C     -210.194     290.896    -103.750
  N     -209.053     291.282    -104.412
  O     -213.239     286.729    -104.316
  O     -213.353     287.042    -106.906
  H     -206.861     289.317    -107.089
  H     -212.841     286.826    -107.706
  H     -206.787     295.082    -103.770
  H     -210.741     289.996    -104.009
  H     -207.886     291.410    -106.095
  H     -207.140     289.378    -104.256
  H     -209.176     288.126    -104.622
  H     -208.731     288.686    -107.618
  H     -211.247     288.647    -107.654
  H     -210.068     295.208    -100.687
  H     -211.035     293.750    -100.913
  H     -210.502     287.074    -107.312
  P     -208.289     285.650    -105.207
  C     -206.049     285.656    -103.937
  O     -206.938     284.904    -104.754
  O     -209.192     284.832    -106.061
  O     -208.974     286.033    -103.811
  H     -209.742     285.459    -103.640
  H     -205.192     285.061    -103.701
  H     -206.548     285.938    -103.033
  H     -205.739     286.535    -104.463

 6  7  8  9  10  11  12  13  14  15  25  28  32  33  34  35 0
 6-311+G(2d,p)
 ****
 36  39  40 0
 6-311+G(2d,p)
 ****
 1  2  3  4  5  16  17  18  19  20  21  22  23  24 0
 3-21G
 ****
 26  27  29  30  31  37  38  41  42  43  44  45  46  47 0
 3-21G
 ****
 48 0
 3-21G
 ****


