%nproc=1
%NoSave
%Mem=1900MB
#P OB98/GEN NMR

erre ene a

0 1
  C     -392.508    -790.535     372.518
  O     -391.974    -791.776     372.991
  P     -393.042    -792.894     373.422
  C     -391.274    -793.736     375.128
  O     -392.250    -794.078     374.163
  C     -390.734    -794.986     375.826
  O     -391.780    -795.721     376.522
  C     -390.081    -795.976     374.892
  O     -388.765    -795.557     374.574
  C     -390.115    -797.269     375.710
  O     -389.002    -797.333     376.622
  C     -391.430    -797.130     376.476
  N     -394.989    -800.626     377.462
  C     -393.918    -800.201     378.241
  N     -393.788    -800.771     379.443
  N     -393.060    -799.301     377.853
  C     -393.298    -798.810     376.606
  C     -394.333    -799.127     375.753
  C     -395.284    -800.138     376.198
  O     -396.258    -800.537     375.565
  N     -394.289    -798.385     374.610
  C     -393.159    -797.709     374.713
  N     -392.551    -797.882     375.934
  O     -393.485    -793.531     372.022
  O     -394.208    -792.339     374.166
  H     -389.129    -798.092     377.213
  H     -394.409    -793.279     371.816
  H     -395.608    -801.342     377.810
  H     -392.759    -797.062     373.945
  H     -391.325    -797.457     377.516
  H     -390.056    -798.152     375.069
  H     -394.423    -801.478     379.819
  H     -390.683    -796.088     373.973
  H     -393.016    -800.463     380.038
  H     -390.014    -794.652     376.593
  H     -391.703    -793.051     375.874
  H     -390.459    -793.183     374.633
  P     -388.499    -794.912     373.125
  C     -386.386    -796.200     372.322
  O     -386.914    -794.991     372.844
  O     -388.774    -793.359     373.345
  O     -389.374    -795.467     372.045
  H     -389.315    -793.006     372.625
  H     -385.509    -795.967     371.728
  H     -387.107    -796.738     371.702
  H     -386.076    -796.857     373.151
  H     -391.705    -789.875     372.263
  H     -393.106    -790.089     373.285
  H     -393.112    -790.713     371.653

 3  4  5  6  7  8  9  10  11  12  23  26  30  31 0
 6-311+G(2d,p)
 ****
 33  35  36  37  38 0
 6-311+G(2d,p)
 ****
 1  2  13  14  15  16  17  18  19  20  21  22  24  25 0
 3-21G
 ****
 27  28  29  32  34  39  40  41  42  43  44  45  46  47  48  49 0
 3-21G
 ****


