%nproc=1
%NoSave
%Mem=1900MB
#P OB98/GEN NMR

erre ene a

0 1
  C      141.664      10.648    -554.008
  O      140.875      11.002    -552.891
  H      142.092      11.549    -554.454
  H      142.480      10.001    -553.674
  H      141.067      10.110    -554.752
  P      139.459      11.697    -553.183
  C      138.233       9.611    -552.242
  O      138.393      10.504    -553.335
  C      137.385       8.409    -552.654
  O      137.930       7.859    -553.890
  C      137.346       7.276    -551.615
  O      136.026       6.726    -551.594
  C      138.301       6.244    -552.187
  O      138.018       4.924    -551.743
  C      138.093       6.444    -553.685
  N      140.301       2.175    -555.344
  C      139.062       2.423    -554.868
  N      138.536       3.607    -554.495
  C      139.405       4.608    -554.726
  C      140.696       4.509    -555.211
  C      141.150       3.216    -555.513
  N      142.431       2.943    -555.934
  N      141.292       5.757    -555.249
  C      140.384       6.585    -554.767
  N      139.228       5.936    -554.434
  O      139.642      12.231    -554.683
  O      139.071      12.789    -552.244
  H      138.015       4.911    -550.766
  H      140.038      13.122    -554.665
  H      138.416       1.559    -554.759
  H      140.524       7.645    -554.610
  H      137.193       5.936    -554.059
  H      139.329       6.495    -551.895
  H      137.632       7.594    -550.605
  H      136.371       8.759    -552.881
  H      137.729      10.137    -551.425
  H      142.702       1.974    -556.024
  H      143.108       3.692    -555.961
  H      139.218       9.283    -551.898
  P      135.000       7.315    -550.514
  C      133.529       8.610    -552.231
  O      134.377       8.675    -551.088
  O      135.955       7.816    -549.331
  O      133.996       6.320    -550.024
  H      135.513       7.713    -548.470
  H      133.198       9.595    -552.486
  H      132.681       7.995    -552.012
  H      134.070       8.191    -553.053

 6  7  8  9  10  11  12  13  14  15  25  28  32  33  34  35 0
 6-311+G(2d,p)
 ****
 36  39  40 0
 6-311+G(2d,p)
 ****
 1  2  3  4  5  16  17  18  19  20  21  22  23  24 0
 3-21G
 ****
 26  27  29  30  31  37  38  41  42  43  44  45  46  47 0
 3-21G
 ****
 48 0
 3-21G
 ****


