%nproc=1
%NoSave
%Mem=1900MB
#P OB98/GEN NMR

erre ene a

0 1
  C      -24.053      14.950      19.087
  O      -24.029      14.024      20.157
  H      -23.032      15.284      18.890
  H      -24.663      15.817      19.354
  H      -24.450      14.474      18.187
  P      -25.440      13.393      20.587
  C      -25.153      12.011      18.417
  O      -26.030      12.782      19.226
  C      -25.945      11.053      17.532
  O      -25.128      10.567      16.453
  C      -26.460       9.814      18.252
  O      -27.645      10.104      18.974
  C      -26.729       8.891      17.074
  O      -27.986       9.239      16.461
  C      -25.570       9.225      16.116
  N      -23.560       4.815      14.427
  C      -24.793       5.349      14.293
  N      -25.269       6.504      14.804
  C      -24.325       7.133      15.522
  C      -23.024       6.710      15.746
  C      -22.643       5.496      15.152
  N      -21.380       4.960      15.283
  N      -22.344       7.616      16.534
  C      -23.204       8.593      16.736
  N      -24.429       8.332      16.175
  O      -26.344      14.292      21.357
  O      -24.960      12.080      21.369
  H      -28.694       8.989      17.083
  H      -24.193      11.679      20.925
  H      -25.491       4.772      13.694
  H      -22.987       9.514      17.264
  H      -25.900       9.240      15.071
  H      -26.800       7.844      17.373
  H      -25.686       9.369      18.886
  H      -26.773      11.618      17.084
  H      -24.453      11.448      19.042
  H      -21.244       4.011      14.972
  H      -20.740       5.405      15.924
  H      -24.579      12.709      17.799
  P      -28.167       9.113      20.121
  C      -27.917      10.632      22.180
  O      -27.389       9.521      21.465
  O      -28.099       7.665      19.782
  O      -29.664       9.587      20.412
  H      -30.237       8.815      20.582
  H      -27.322      10.811      23.051
  H      -28.924      10.422      22.473
  H      -27.901      11.499      21.554

 6  7  8  9  10  11  12  13  14  15  25  28  32  33  34  35 0
 6-311+G(2d,p)
 ****
 36  39  40 0
 6-311+G(2d,p)
 ****
 1  2  3  4  5  16  17  18  19  20  21  22  23  24 0
 3-21G
 ****
 26  27  29  30  31  37  38  41  42  43  44  45  46  47 0
 3-21G
 ****
 48 0
 3-21G
 ****


