%nproc=1
%NoSave
%Mem=1900MB
#P OB98/GEN NMR

erre ene a

0 1
  C      -64.011    -100.429     151.296
  O      -64.179    -101.061     150.043
  H      -64.278    -101.137     152.086
  H      -64.668     -99.558     151.366
  H      -62.970    -100.122     151.432
  P      -63.676    -100.257     148.752
  C      -64.534     -98.149     147.445
  O      -64.795     -99.155     148.418
  C      -65.825     -97.787     146.708
  O      -66.760     -97.128     147.587
  C      -65.630     -96.790     145.576
  O      -64.970     -97.353     144.463
  C      -67.074     -96.396     145.309
  O      -67.745     -97.392     144.526
  C      -67.649     -96.353     146.747
  N      -67.807     -94.991     147.240
  C      -68.819     -94.234     146.631
  O      -69.516     -94.730     145.748
  N      -68.990     -92.930     147.025
  C      -68.241     -92.427     147.954
  N      -68.454     -91.131     148.289
  C      -67.181     -93.199     148.638
  C      -67.016     -94.452     148.231
  O      -63.871    -101.324     147.577
  O      -62.300     -99.687     148.848
  H      -67.664     -98.233     145.016
  H      -64.769    -101.699     147.534
  H      -66.584     -92.741     149.417
  H      -66.260     -95.089     148.678
  H      -68.635     -96.840     146.782
  H      -67.147     -95.460     144.759
  H      -65.102     -95.901     145.943
  H      -66.283     -98.720     146.351
  H      -69.177     -90.627     147.786
  H      -63.765     -98.475     146.737
  H      -67.909     -90.625     148.977
  H      -64.143     -97.270     147.970
  P      -64.797     -96.507     143.112
  C      -66.373     -95.549     141.313
  O      -66.266     -96.366     142.479
  O      -63.766     -97.026     142.166
  O      -64.512     -95.021     143.637
  H      -65.218     -94.640     144.184
  H      -67.391     -95.530     140.983
  H      -65.754     -95.951     140.538
  H      -66.054     -94.554     141.544

 6  7  8  9  10  11  12  13  14  15  16  26  30  31  32  33  35 0
 6-311+G(2d,p)
 ****
 37  38 0
 6-311+G(2d,p)
 ****
 1  2  3  4  5  17  18  19  20  21  22  23  24  25 0
 3-21G
 ****
 27  28  29  34  36  39  40  41  42  43  44  45  46 0
 3-21G
 ****


