%nproc=1
%NoSave
%Mem=1900MB
#P OB98/GEN NMR

erre ene a

0 1
  C      623.227     618.167     304.056
  O      622.413     618.002     305.212
  P      621.022     618.754     305.454
  C      618.494     618.208     305.044
  O      619.834     617.761     305.043
  C      617.469     617.058     304.962
  O      617.768     616.225     303.809
  C      617.587     616.150     306.195
  O      616.912     616.495     307.392
  C      617.244     614.761     305.678
  O      615.866     614.426     305.855
  C      617.589     614.839     304.188
  N      619.690     610.206     303.626
  C      618.434     610.546     304.092
  N      617.641     609.529     304.508
  N      617.991     611.775     304.158
  C      618.909     612.699     303.793
  C      620.187     612.487     303.340
  C      620.642     611.120     303.216
  O      621.746     610.760     302.793
  N      620.831     613.668     303.085
  C      619.961     614.597     303.410
  N      618.769     614.058     303.841
  O      620.944     620.145     304.935
  O      620.915     618.829     307.063
  H      615.684     614.412     306.806
  H      620.442     619.653     307.275
  H      619.964     609.240     303.574
  H      620.119     615.668     303.351
  H      616.768     614.457     303.576
  H      617.818     613.998     306.226
  H      617.967     608.577     304.590
  H      618.643     616.112     306.463
  H      616.820     609.788     305.047
  H      616.465     617.440     304.802
  H      618.376     618.878     304.186
  H      618.297     618.802     305.936
  P      617.603     617.044     308.734
  C      618.929     619.105     309.469
  O      618.115     618.533     308.464
  O      618.967     616.208     308.831
  O      616.790     616.869     309.977
  H      619.342     616.267     309.729
  H      618.952     620.195     309.325
  H      619.946     618.716     309.401
  H      618.527     618.893     310.468
  H      624.099     617.553     304.143
  H      623.520     619.192     303.969
  H      622.674     617.879     303.186

 3  4  5  6  7  8  9  10  11  12  23  26  30  31 0
 6-311+G(2d,p)
 ****
 33  35  36  37  38 0
 6-311+G(2d,p)
 ****
 1  2  13  14  15  16  17  18  19  20  21  22  24  25 0
 3-21G
 ****
 27  28  29  32  34  39  40  41  42  43  44  45  46  47  48  49 0
 3-21G
 ****


