%nproc=1
%NoSave
%Mem=1900MB
#P OB98/GEN NMR

erre ene a

0 1
  C      413.999    -297.220    -388.034
  O      414.060    -297.629    -389.387
  H      413.085    -297.619    -387.588
  H      413.975    -296.129    -387.964
  H      414.859    -297.608    -387.478
  P      415.316    -297.162    -390.264
  C      415.204    -299.324    -391.671
  O      415.166    -297.904    -391.678
  C      415.280    -299.853    -393.096
  O      416.127    -299.010    -393.902
  C      415.844    -301.268    -393.206
  O      414.840    -302.226    -392.910
  C      416.277    -301.281    -394.661
  O      415.124    -301.446    -395.510
  C      416.858    -299.867    -394.825
  N      421.536    -301.121    -396.319
  C      420.312    -301.471    -396.852
  N      420.337    -302.310    -397.908
  N      419.165    -301.052    -396.378
  C      419.293    -300.276    -395.278
  C      420.449    -299.872    -394.651
  C      421.714    -300.297    -395.214
  O      422.823    -299.994    -394.786
  N      420.183    -299.141    -393.520
  C      418.863    -299.071    -393.492
  N      418.279    -299.756    -394.526
  O      416.665    -297.331    -389.635
  O      415.001    -295.633    -390.612
  H      414.749    -302.320    -395.302
  H      415.399    -295.033    -389.956
  H      422.383    -301.490    -396.717
  H      418.289    -298.536    -392.744
  H      416.708    -299.467    -395.834
  H      416.971    -302.087    -394.898
  H      421.152    -302.875    -398.121
  H      416.733    -301.401    -392.579
  H      419.450    -302.622    -398.280
  H      414.272    -299.799    -393.530
  H      414.293    -299.678    -391.179
  H      416.069    -299.677    -391.102
  P      415.224    -303.742    -392.549
  C      412.765    -303.683    -391.749
  O      413.822    -304.474    -392.284
  O      416.220    -303.895    -391.451
  O      415.688    -304.378    -393.935
  H      416.652    -304.263    -394.122
  H      411.894    -304.291    -391.622
  H      412.545    -302.880    -392.421
  H      413.062    -303.284    -390.802

 6  7  8  9  10  11  12  13  14  15  26  29  33  34 0
 6-311+G(2d,p)
 ****
 36  38  39  40  41 0
 6-311+G(2d,p)
 ****
 1  2  3  4  5  16  17  18  19  20  21  22  23  24  25 0
 3-21G
 ****
 27  28  30  31  32  35  37  42  43  44  45  46  47 0
 3-21G
 ****
 48  49 0
 3-21G
 ****


