%nproc=1
%NoSave
%Mem=1900MB
#P OB98/GEN NMR

erre ene a

0 1
  C     1101.968    -129.286     220.530
  O     1101.190    -129.613     219.394
  H     1102.978    -129.694     220.388
  H     1101.535    -129.741     221.423
  H     1102.043    -128.204     220.657
  P     1099.715    -129.008     219.275
  C     1098.654    -130.853     217.812
  O     1098.716    -130.248     219.099
  C     1098.566    -132.370     217.961
  O     1099.858    -132.912     218.322
  C     1097.609    -132.826     219.042
  O     1096.263    -132.724     218.612
  C     1098.093    -134.255     219.274
  O     1097.564    -135.139     218.271
  C     1099.621    -134.090     219.118
  N     1100.312    -134.009     220.414
  C     1100.762    -135.210     220.950
  O     1100.579    -136.305     220.407
  N     1101.410    -135.117     222.150
  C     1101.551    -133.988     222.902
  O     1102.061    -133.976     224.015
  C     1101.028    -132.751     222.303
  C     1100.439    -132.820     221.094
  O     1099.539    -127.914     218.276
  O     1099.391    -128.500     220.760
  H     1096.592    -135.086     218.342
  H     1099.456    -127.524     220.792
  H     1101.743    -135.972     222.564
  H     1101.129    -131.832     222.856
  H     1100.045    -131.926     220.637
  H     1100.033    -134.943     218.563
  H     1097.777    -134.646     220.239
  H     1097.771    -132.250     219.957
  H     1098.290    -132.799     216.984
  H     1099.568    -130.591     217.262
  H     1097.789    -130.464     217.279
  P     1095.222    -131.847     219.459
  C     1093.369    -132.308     217.738
  O     1093.744    -132.372     219.103
  O     1095.407    -130.369     219.371
  O     1095.432    -132.357     220.961
  H     1095.718    -131.604     221.517
  H     1092.373    -132.681     217.624
  H     1094.041    -132.902     217.155
  H     1093.410    -131.292     217.404

 6  7  8  9  10  11  12  13  14  15  16  26  31  32  33  34  35 0
 6-311+G(2d,p)
 ****
 36  37 0
 6-311+G(2d,p)
 ****
 1  2  3  4  5  17  18  19  20  21  22  23  24  25 0
 3-21G
 ****
 27  28  29  30  38  39  40  41  42  43  44  45 0
 3-21G
 ****


