%nproc=1
%NoSave
%Mem=1900MB
#P OB98/GEN NMR

erre ene a

0 1
  C      154.572     -45.850      82.511
  O      153.783     -45.136      81.582
  H      154.429     -46.920      82.340
  H      154.269     -45.617      83.535
  H      155.630     -45.614      82.371
  P      153.726     -43.536      81.701
  C      151.158     -43.226      81.844
  O      152.319     -43.141      81.031
  C      149.919     -43.431      80.975
  O      149.728     -42.319      80.075
  C      149.968     -44.657      80.069
  O      149.780     -45.879      80.764
  C      148.814     -44.338      79.132
  O      147.566     -44.592      79.801
  C      149.022     -42.821      78.905
  N      149.775     -42.524      77.688
  C      149.033     -42.082      76.585
  O      147.812     -41.959      76.660
  N      149.691     -41.825      75.406
  C      150.971     -42.011      75.329
  N      151.566     -41.788      74.123
  C      151.793     -42.458      76.470
  C      151.138     -42.698      77.604
  O      154.914     -42.792      81.181
  O      153.433     -43.264      83.250
  H      146.858     -44.456      79.146
  H      153.400     -42.284      83.379
  H      152.856     -42.605      76.349
  H      151.671     -43.046      78.483
  H      148.059     -42.299      78.863
  H      148.820     -44.939      78.218
  H      150.895     -44.677      79.487
  H      149.048     -43.457      81.642
  H      150.966     -41.524      73.354
  H      151.081     -42.303      82.426
  H      152.482     -42.168      73.909
  H      151.241     -44.074      82.531
  P      150.379     -47.217      80.105
  C      148.349     -48.843      80.269
  O      149.610     -48.449      80.787
  O      151.848     -47.295      80.730
  O      150.388     -47.255      78.609
  H      152.505     -46.881      80.137
  H      147.975     -49.672      80.832
  H      148.458     -49.129      79.244
  H      147.663     -48.025      80.340

 6  7  8  9  10  11  12  13  14  15  16  26  30  31  32  33  35 0
 6-311+G(2d,p)
 ****
 37  38 0
 6-311+G(2d,p)
 ****
 1  2  3  4  5  17  18  19  20  21  22  23  24  25 0
 3-21G
 ****
 27  28  29  34  36  39  40  41  42  43  44  45  46 0
 3-21G
 ****


