%nproc=1
%NoSave
%Mem=1900MB
#P OB98/GEN NMR

erre ene a

0 1
  C      -66.571     106.810    -393.865
  O      -67.655     105.888    -393.923
  P      -69.110     106.471    -394.279
  C      -69.626     106.439    -391.732
  O      -69.622     107.194    -392.938
  C      -70.831     106.817    -390.868
  O      -70.723     108.183    -390.431
  C      -72.173     106.718    -391.579
  O      -72.673     105.380    -391.598
  C      -73.036     107.593    -390.683
  O      -73.426     106.858    -389.506
  C      -72.066     108.720    -390.312
  N      -74.652     113.076    -391.022
  C      -74.807     112.073    -390.130
  N      -74.085     110.942    -390.010
  C      -73.141     110.876    -390.969
  C      -72.891     111.805    -391.966
  C      -73.692     112.955    -391.972
  N      -73.521     113.990    -392.872
  N      -71.847     111.390    -392.764
  C      -71.459     110.237    -392.248
  N      -72.204     109.893    -391.155
  O      -70.019     105.150    -394.356
  O      -69.176     107.277    -395.532
  H      -72.602     106.566    -389.066
  H      -70.804     105.321    -394.909
  H      -75.610     112.209    -389.414
  H      -70.653     109.635    -392.629
  H      -72.188     109.046    -389.268
  H      -73.957     107.917    -391.173
  H      -72.123     107.151    -392.589
  H      -70.814     106.176    -389.972
  H      -68.712     106.648    -391.176
  H      -74.010     114.853    -392.693
  H      -72.685     113.986    -393.438
  H      -69.654     105.370    -391.977
  P      -73.325     104.882    -392.980
  C      -75.818     105.624    -392.878
  O      -74.499     105.923    -393.301
  O      -74.092     103.543    -392.548
  O      -72.334     104.640    -394.072
  H      -74.191     102.944    -393.308
  H      -76.407     106.539    -392.892
  H      -75.824     105.212    -391.858
  H      -76.268     104.900    -393.567
  H      -65.670     106.287    -393.620
  H      -66.770     107.548    -393.116
  H      -66.458     107.288    -394.816

 3  4  5  6  7  8  9  10  11  12  22  25  29  30  31  32 0
 6-311+G(2d,p)
 ****
 33  36  37 0
 6-311+G(2d,p)
 ****
 1  2  13  14  15  16  17  18  19  20  21  23  24  26 0
 3-21G
 ****
 27  28  34  35  38  39  40  41  42  43  44  45  46  47  48 0
 3-21G
 ****


