%nproc=1
%NoSave
%Mem=1900MB
#P OB98/GEN NMR

erre ene a

0 1
  C      303.480    -603.104     204.939
  O      303.228    -602.304     203.782
  P      302.479    -603.004     202.550
  C      300.833    -601.109     201.790
  O      302.013    -601.850     201.543
  C      301.145    -599.816     202.575
  O      301.886    -598.923     201.699
  C      299.932    -599.025     203.036
  O      300.332    -598.127     204.078
  C      299.589    -598.232     201.794
  O      298.753    -597.121     202.090
  C      300.984    -597.886     201.228
  N      301.026    -597.823     199.749
  C      300.544    -596.674     199.121
  O      300.071    -595.705     199.729
  N      300.568    -596.679     197.757
  C      301.060    -597.675     196.958
  O      300.978    -597.658     195.745
  C      301.685    -598.793     197.675
  C      301.635    -598.820     199.003
  O      301.120    -603.544     203.191
  O      303.271    -604.097     201.913
  H      299.094    -596.728     202.927
  H      301.163    -604.508     203.313
  H      300.161    -595.879     197.289
  H      302.151    -599.576     197.083
  H      302.080    -599.654     199.549
  H      301.336    -596.921     201.600
  H      299.045    -598.864     201.085
  H      299.089    -599.639     203.374
  H      301.792    -600.064     203.418
  H      300.118    -601.718     202.342
  H      300.355    -600.846     200.843
  P      299.562    -598.210     205.483
  C      301.597    -598.352     207.048
  O      300.538    -597.547     206.563
  O      299.006    -599.551     205.842
  O      298.410    -597.109     205.319
  H      297.708    -597.268     205.980
  H      302.434    -597.707     207.324
  H      301.941    -599.064     206.287
  H      301.259    -598.905     207.924
  H      303.982    -602.515     205.678
  H      304.095    -603.937     204.670
  H      302.552    -603.459     205.336

 3  4  5  6  7  8  9  10  11  12  13  23  28  29  30  31  32 0
 6-311+G(2d,p)
 ****
 33  34 0
 6-311+G(2d,p)
 ****
 1  2  14  15  16  17  18  19  20  21  22  24  25  26  27 0
 3-21G
 ****
 35  36  37  38  39  40  41  42  43  44  45 0
 3-21G
 ****


