%nproc=1
%NoSave
%Mem=1900MB
#P OB98/GEN NMR

erre ene a

0 1
  C      330.617      87.236      74.897
  O      330.723      86.029      74.132
  P      332.127      85.767      73.392
  C      332.181      84.698      71.019
  O      331.929      84.516      72.407
  C      331.616      83.535      70.209
  O      332.105      82.273      70.703
  C      330.097      83.417      70.259
  O      329.471      84.334      69.376
  C      329.898      81.985      69.785
  O      329.932      81.936      68.346
  C      331.119      81.263      70.380
  N      329.525      76.828      72.250
  C      329.713      77.222      70.939
  N      329.469      76.288      69.991
  N      330.106      78.419      70.587
  C      330.344      79.235      71.641
  C      330.194      78.966      72.980
  C      329.727      77.647      73.356
  O      329.515      77.258      74.499
  N      330.540      80.048      73.754
  C      330.927      80.955      72.881
  N      330.811      80.521      71.586
  O      333.045      85.170      74.565
  O      332.729      86.989      72.781
  H      329.811      81.002      68.089
  H      333.985      85.360      74.382
  H      329.214      75.897      72.462
  H      331.298      81.942      73.138
  H      331.579      80.579      69.659
  H      328.932      81.571      70.092
  H      329.234      75.328      70.195
  H      329.729      83.522      71.287
  H      329.635      76.549      69.026
  H      331.946      83.653      69.167
  H      333.257      84.771      70.847
  H      331.743      85.651      70.701
  P      328.002      84.846      69.771
  C      327.489      85.249      67.258
  O      327.544      85.794      68.563
  O      328.283      85.861      70.974
  O      327.050      83.762      70.158
  H      327.515      85.894      71.577
  H      327.046      84.250      67.258
  H      328.501      85.202      66.844
  H      326.878      85.903      66.627
  H      329.643      87.295      75.337
  H      330.771      88.079      74.256
  H      331.358      87.235      75.669

 3  4  5  6  7  8  9  10  11  12  23  26  30  31  33  0
 6-311+G(2d,p)
 ****
 35  36  37  38 0
 6-311+G(2d,p)
 ****
 1  2  13  14  15  16  17  18  19  20  21  22  24  25  27  28  29 0
 3-21G
 ****
 32  34  39  40  41  42  43  44  45  46  47  48  49 0
 3-21G
 ****


