%nproc=1
%NoSave
%Mem=1900MB
#P OB98/GEN NMR

erre ene a

0 1
  C      -40.200     -64.019    -684.099
  O      -41.477     -63.382    -683.980
  P      -41.875     -62.378    -685.176
  C      -40.553     -60.280    -684.379
  O      -40.680     -61.317    -685.349
  C      -39.481     -59.263    -684.770
  O      -39.532     -58.135    -683.849
  C      -38.045     -59.793    -684.744
  O      -37.311     -59.198    -685.827
  C      -37.478     -59.237    -683.453
  O      -36.058     -59.162    -683.474
  C      -38.192     -57.879    -683.407
  N      -35.393     -55.603    -679.857
  C      -35.057     -55.964    -681.149
  N      -33.789     -55.710    -681.542
  N      -35.887     -56.534    -681.986
  C      -37.131     -56.708    -681.464
  C      -37.586     -56.383    -680.204
  C      -36.645     -55.795    -679.280
  O      -36.866     -55.503    -678.110
  N      -38.909     -56.712    -680.049
  C      -39.257     -57.248    -681.212
  N      -38.204     -57.268    -682.099
  O      -43.070     -61.513    -684.539
  O      -42.310     -63.062    -686.424
  H      -35.806     -58.670    -684.284
  H      -43.867     -61.580    -685.102
  H      -34.709     -55.193    -679.256
  H      -40.227     -57.649    -681.455
  H      -37.726     -57.172    -684.107
  H      -37.786     -59.879    -682.617
  H      -33.111     -55.209    -680.976
  H      -37.968     -60.881    -684.800
  H      -33.538     -55.918    -682.492
  H      -39.731     -58.868    -685.770
  H      -40.297     -60.721    -683.411
  H      -41.525     -59.788    -684.270
  P      -37.278     -60.019    -687.206
  C      -35.432     -61.650    -686.345
  O      -36.755     -61.493    -686.820
  O      -36.032     -59.380    -687.987
  O      -38.536     -59.959    -688.000
  H      -36.151     -59.477    -688.949
  H      -34.955     -60.697    -686.100
  H      -34.836     -62.160    -687.107
  H      -35.455     -62.273    -685.437
  H      -40.041     -64.659    -683.256
  H      -39.432     -63.275    -684.132
  H      -40.173     -64.599    -684.997

 3  4  5  6  7  8  9  10  11  12  23  26  30  31  33  0
 6-311+G(2d,p)
 ****
 35  36  37  38 0
 6-311+G(2d,p)
 ****
 1  2  13  14  15  16  17  18  19  20  21  22  24  25  27  28  29 0
 3-21G
 ****
 32  34  39  40  41  42  43  44  45  46  47  48  49 0
 3-21G
 ****


