%nproc=1
%NoSave
%Mem=1900MB
#P OB98/GEN NMR

erre ene a

0 1
  C      -29.993     319.013     -10.152
  O      -30.548     317.714     -10.129
  H      -30.809     319.741     -10.169
  H      -29.379     319.157     -11.046
  H      -29.392     319.186      -9.254
  P      -29.551     316.459     -10.218
  C      -30.624     315.764     -12.472
  O      -30.338     315.395     -11.129
  C      -31.470     314.685     -13.149
  O      -30.889     313.377     -12.959
  C      -32.892     314.557     -12.614
  O      -33.749     315.608     -13.032
  C      -33.280     313.217     -13.209
  O      -33.573     313.379     -14.611
  C      -31.974     312.408     -13.007
  N      -31.990     311.597     -11.792
  C      -32.380     310.258     -11.935
  O      -32.697     309.812     -13.038
  N      -32.446     309.466     -10.814
  C      -32.165     309.965      -9.652
  N      -32.290     309.148      -8.568
  C      -31.728     311.361      -9.459
  C      -31.667     312.115     -10.557
  O      -29.036     315.930      -8.916
  O      -28.393     316.940     -11.212
  H      -34.297     314.028     -14.676
  H      -27.742     316.200     -11.292
  H      -31.510     311.731      -8.467
  H      -31.375     313.157     -10.494
  H      -31.785     311.754     -13.868
  H      -34.165     312.772     -12.746
  H      -32.892     314.470     -11.522
  H      -31.463     314.890     -14.228
  H      -32.629     308.211      -8.735
  H      -29.673     315.901     -12.997
  H      -32.359     309.525      -7.626
  H      -31.183     316.704     -12.495
  P      -34.526     316.443     -11.896
  C      -36.352     314.580     -11.836
  O      -36.058     315.963     -11.948
  O      -34.568     317.920     -12.509
  O      -33.916     316.403     -10.530
  H      -33.819     318.458     -12.187
  H      -37.411     314.435     -11.890
  H      -35.989     314.213     -10.899
  H      -35.878     314.049     -12.635

 6  7  8  9  10  11  12  13  14  15  16  26  30  31  32  33  35 0
 6-311+G(2d,p)
 ****
 37  38 0
 6-311+G(2d,p)
 ****
 1  2  3  4  5  17  18  19  20  21  22  23  24  25 0
 3-21G
 ****
 27  28  29  34  36  39  40  41  42  43  44  45  46 0
 3-21G
 ****


