%nproc=1
%NoSave
%Mem=1900MB
#P OB98/GEN NMR

erre ene a

0 1
  C     -114.814     579.536    -118.521
  O     -115.309     578.247    -118.198
  P     -116.800     577.883    -118.665
  C     -116.117     575.487    -119.439
  O     -116.643     576.766    -119.807
  C     -115.584     574.762    -120.670
  O     -114.589     575.567    -121.325
  C     -114.900     573.437    -120.350
  O     -115.848     572.427    -120.097
  C     -114.078     573.217    -121.623
  O     -114.857     572.552    -122.626
  C     -113.730     574.659    -122.059
  N     -112.325     574.986    -121.850
  C     -111.502     574.879    -122.981
  O     -111.985     574.518    -124.062
  N     -110.161     575.154    -122.852
  C     -109.692     575.496    -121.695
  N     -108.355     575.760    -121.625
  C     -110.514     575.595    -120.478
  C     -111.809     575.319    -120.617
  O     -117.250     579.182    -119.475
  O     -117.738     577.549    -117.553
  H     -115.102     571.684    -122.236
  H     -118.224     579.278    -119.463
  H     -110.065     575.879    -119.532
  H     -112.489     575.370    -119.781
  H     -113.956     574.804    -123.126
  H     -113.201     572.591    -121.440
  H     -114.218     573.551    -119.493
  H     -116.421     574.608    -121.371
  H     -107.811     575.673    -122.479
  H     -116.910     574.892    -118.991
  H     -107.893     576.054    -120.775
  H     -115.326     575.630    -118.698
  P     -115.679     571.561    -118.766
  C     -117.913     571.973    -117.571
  O     -116.555     572.336    -117.657
  O     -114.184     571.914    -118.319
  O     -115.909     570.090    -118.875
  H     -113.923     571.365    -117.556
  H     -118.350     572.454    -116.690
  H     -118.028     570.895    -117.484
  H     -118.450     572.329    -118.461
  H     -113.815     579.638    -118.150
  H     -115.439     580.280    -118.073
  H     -114.814     579.662    -119.584

 3  4  5  6  7  8  9  10  11  12  13  21  23  27  28  29  30  32 0
 6-311+G(2d,p)
 ****
 34  35 0
 6-311+G(2d,p)
 ****
 1  2  14  15  16  17  18  19  20  22  24  25  26 0
 3-21G
 ****
 31  33  36  37  38  39  40  41  42  43  44  45  46 0
 3-21G
 ****


