%nproc=1
%NoSave
%Mem=1900MB
#P OB98/GEN NMR

erre ene a

0 1
  C      202.596     162.071    -292.416
  O      203.400     161.357    -291.461
  P      202.750     160.934    -290.053
  C      204.540     161.047    -288.148
  O      203.889     160.268    -289.141
  C      205.879     160.410    -287.773
  O      205.688     159.047    -287.323
  C      206.873     160.311    -288.922
  O      207.487     161.560    -289.199
  C      207.846     159.263    -288.390
  O      208.815     159.860    -287.513
  C      206.904     158.326    -287.607
  N      206.635     157.080    -288.322
  C      206.513     155.931    -287.544
  O      206.682     155.927    -286.326
  N      206.227     154.782    -288.223
  C      206.114     154.652    -289.579
  O      205.873     153.584    -290.129
  C      206.332     155.885    -290.354
  C      206.583     157.020    -289.702
  O      201.867     159.657    -290.464
  O      201.901     161.969    -289.393
  H      208.323     160.474    -286.932
  H      201.111     159.573    -289.853
  H      206.103     153.943    -287.675
  H      206.277     155.820    -291.434
  H      206.744     157.936    -290.259
  H      207.345     158.079    -286.633
  H      208.403     158.769    -289.191
  H      206.374     159.916    -289.812
  H      206.311     160.983    -286.939
  H      203.905     161.096    -287.256
  H      204.686     162.060    -288.529
  P      207.815     161.871    -290.741
  C      209.938     163.378    -290.524
  O      208.548     163.295    -290.738
  O      206.345     162.162    -291.311
  O      208.538     160.758    -291.425
  H      205.771     162.586    -290.647
  H      210.462     162.508    -290.937
  H      210.137     163.441    -289.451
  H      210.321     164.279    -291.012
  H      203.177     162.273    -293.291
  H      202.266     162.994    -291.986
  H      201.746     161.477    -292.681

 3  4  5  6  7  8  9  10  11  12  13  23  28  29  30  31  32 0
 6-311+G(2d,p)
 ****
 33  34 0
 6-311+G(2d,p)
 ****
 1  2  14  15  16  17  18  19  20  21  22  24  25  26 0
 3-21G
 ****
 27  35  36  37  38  39  40  41  42  43  44  45 0
 3-21G
 ****


