%nproc=1
%NoSave
%Mem=1900MB
#P OB98/GEN NMR

erre ene a

0 1
  C     -441.081     -48.783    -127.476
  O     -440.107     -49.090    -126.472
  P     -439.602     -50.612    -126.379
  C     -437.923     -50.829    -124.396
  O     -439.269     -50.944    -124.847
  C     -437.887     -50.350    -122.940
  O     -438.121     -48.931    -122.854
  C     -438.966     -50.984    -122.080
  O     -438.601     -52.302    -121.716
  C     -439.044     -50.017    -120.899
  O     -438.133     -50.388    -119.850
  C     -438.631     -48.669    -121.532
  N     -439.726     -47.704    -121.570
  C     -439.361     -46.363    -121.443
  O     -438.178     -46.047    -121.289
  N     -440.352     -45.410    -121.467
  C     -441.594     -45.771    -121.579
  N     -442.532     -44.782    -121.594
  C     -442.020     -47.185    -121.691
  C     -441.046     -48.092    -121.671
  O     -438.155     -50.559    -127.067
  O     -440.504     -51.593    -127.056
  H     -438.430     -49.906    -119.053
  H     -437.971     -51.401    -127.525
  H     -443.069     -47.437    -121.776
  H     -441.265     -49.153    -121.748
  H     -437.806     -48.217    -120.963
  H     -440.046     -50.000    -120.462
  H     -439.924     -50.988    -122.617
  H     -436.895     -50.572    -122.524
  H     -442.204     -43.831    -121.518
  H     -437.373     -50.127    -125.029
  H     -443.521     -44.953    -121.671
  H     -437.429     -51.803    -124.503
  P     -439.250     -53.516    -122.541
  C     -436.871     -54.461    -122.817
  O     -438.197     -54.725    -122.403
  O     -439.013     -53.045    -124.061
  O     -440.680     -53.840    -122.276
  H     -439.453     -53.657    -124.674
  H     -436.228     -55.276    -122.484
  H     -436.510     -53.520    -122.388
  H     -436.828     -54.409    -123.913
  H     -441.327     -47.743    -127.428
  H     -441.962     -49.366    -127.308
  H     -440.681     -49.011    -128.442

 3  4  5  6  7  8  9  10  11  12  13  21  23  27  28  29  30  32 0
 6-311+G(2d,p)
 ****
 34  35 0
 6-311+G(2d,p)
 ****
 1  2  14  15  16  17  18  19  20  22  24  25  26 0
 3-21G
 ****
 31  33  36  37  38  39  40  41  42  43  44  45  46 0
 3-21G
 ****


