%nproc=1
%NoSave
%Mem=1900MB
#P OB98/GEN NMR

erre ene a

0 1
  C      -35.672     -99.442    -117.708
  O      -35.706     -98.884    -116.410
  H      -35.530    -100.523    -117.643
  H      -36.627     -99.240    -118.202
  H      -34.868     -98.993    -118.299
  P      -34.336     -98.914    -115.574
  C      -34.688     -96.540    -114.574
  O      -34.566     -97.933    -114.322
  C      -34.902     -95.778    -113.265
  O      -36.284     -95.940    -112.850
  C      -34.011     -96.269    -112.119
  O      -33.587     -95.143    -111.348
  C      -34.943     -97.140    -111.294
  O      -34.529     -97.239    -109.937
  C      -36.278     -96.426    -111.493
  N      -39.860     -97.820    -108.132
  C      -38.940     -96.833    -108.114
  N      -38.023     -96.524    -109.055
  C      -38.154     -97.331    -110.124
  C      -39.041     -98.381    -110.287
  C      -39.923     -98.625    -109.221
  N      -40.839     -99.652    -109.216
  N      -38.843     -98.997    -111.510
  C      -37.854     -98.329    -112.069
  N      -37.403     -97.317    -111.269
  O      -33.340     -98.087    -116.522
  O      -33.804    -100.268    -115.248
  H      -34.692     -96.377    -109.502
  H      -33.021     -98.666    -117.239
  H      -38.933     -96.212    -107.221
  H      -37.425     -98.541    -113.040
  H      -36.401     -95.571    -110.817
  H      -34.975     -98.151    -111.718
  H      -33.136     -96.820    -112.469
  H      -34.752     -94.708    -113.454
  H      -35.542     -96.372    -115.239
  H      -41.394     -99.789    -108.386
  H      -40.859    -100.299    -109.991
  H      -33.776     -96.181    -115.066
  P      -32.163     -94.504    -111.723
  C      -32.883     -92.056    -111.270
  O      -32.001     -93.116    -110.933
  O      -32.349     -94.055    -113.248
  O      -31.022     -95.457    -111.571
  H      -31.606     -94.383    -113.787
  H      -32.659     -91.201    -110.667
  H      -33.893     -92.362    -111.093
  H      -32.762     -91.806    -112.303

 6  7  8  9  10  11  12  13  14  15  25  28  32  33  34  35 0
 6-311+G(2d,p)
 ****
 36  39  40 0
 6-311+G(2d,p)
 ****
 1  2  3  4  5  16  17  18  19  20  21  22  23  24 0
 3-21G
 ****
 26  27  29  30  31  37  38  41  42  43  44  45  46  47 0
 3-21G
 ****
 48 0
 3-21G
 ****


