%nproc=1
%NoSave
%Mem=1900MB
#P OB98/GEN NMR

erre ene a

0 1
  C      409.841     243.744     175.652
  O      409.049     244.914     175.782
  H      410.497     243.865     174.786
  H      409.200     242.872     175.490
  H      410.451     243.603     176.549
  P      407.923     244.893     176.936
  C      408.817     247.088     178.027
  O      407.764     246.449     177.327
  C      408.753     248.596     177.806
  O      409.330     248.943     176.519
  C      407.337     249.172     177.783
  O      406.768     249.331     179.068
  C      407.614     250.519     177.121
  O      408.239     251.397     178.075
  C      408.603     250.103     176.012
  N      407.931     249.773     174.743
  C      408.123     250.667     173.685
  O      408.815     251.673     173.820
  N      407.485     250.419     172.485
  C      406.747     249.358     172.348
  N      406.145     249.170     171.138
  C      406.530     248.384     173.439
  C      407.139     248.647     174.586
  O      408.698     244.292     178.194
  O      406.650     244.191     176.594
  H      408.824     250.843     178.629
  H      408.136     244.376     179.011
  H      405.894     247.522     173.286
  H      407.035     247.975     175.435
  H      409.342     250.896     175.817
  H      406.712     251.021     176.771
  H      406.671     248.593     177.128
  H      409.367     249.084     178.576
  H      406.261     249.890     170.438
  H      409.778     246.693     177.657
  H      405.436     248.463     170.988
  H      408.737     246.879     179.102
  P      405.263     249.897     179.152
  C      404.871     248.690     181.431
  O      404.855     249.917     180.705
  O      404.394     248.694     178.557
  O      405.043     251.173     178.416
  H      403.622     249.036     178.062
  H      404.577     248.871     182.444
  H      405.859     248.279     181.415
  H      404.190     248.000     180.980

 6  7  8  9  10  11  12  13  14  15  16  26  30  31  32  33  35 0
 6-311+G(2d,p)
 ****
 37  38 0
 6-311+G(2d,p)
 ****
 1  2  3  4  5  17  18  19  20  21  22  23  24  25 0
 3-21G
 ****
 27  28  29  34  36  39  40  41  42  43  44  45  46 0
 3-21G
 ****


