%nproc=1
%NoSave
%Mem=1900MB
#P OB98/GEN NMR

erre ene a

0 1
  C      225.139     -87.413    -351.645
  O      225.494     -87.977    -352.906
  P      225.279     -89.566    -353.048
  C      226.705     -91.687    -352.610
  O      226.566     -90.289    -352.415
  C      227.711     -92.283    -351.618
  O      229.072     -91.854    -351.935
  C      227.446     -91.888    -350.157
  O      227.811     -93.014    -349.350
  C      228.422     -90.741    -349.954
  O      228.645     -90.427    -348.589
  C      229.620     -91.283    -350.726
  N      234.169     -89.390    -349.394
  C      233.424     -90.400    -348.884
  N      232.216     -90.839    -349.296
  C      231.790     -90.126    -350.353
  C      232.432     -89.070    -350.980
  C      233.685     -88.701    -350.457
  N      234.444     -87.664    -350.951
  N      231.666     -88.574    -352.021
  C      230.542     -89.279    -351.970
  N      230.611     -90.275    -351.034
  O      225.426     -89.824    -354.619
  O      223.967     -90.041    -352.512
  H      227.812     -90.102    -348.185
  H      224.547     -89.898    -355.034
  H      233.854     -90.914    -348.028
  H      229.671     -89.110    -352.574
  H      230.134     -92.085    -350.184
  H      228.021     -89.842    -350.439
  H      226.399     -91.623    -349.958
  H      227.686     -93.381    -351.719
  H      227.046     -91.891    -353.632
  H      235.324     -87.474    -350.509
  H      234.114     -87.122    -351.735
  H      225.723     -92.162    -352.512
  P      226.722     -93.623    -348.336
  C      226.722     -94.069    -345.807
  O      227.349     -93.382    -346.876
  O      226.988     -95.194    -348.536
  O      225.308     -93.211    -348.562
  H      227.934     -95.403    -348.457
  H      227.294     -93.886    -344.892
  H      226.707     -95.145    -346.006
  H      225.707     -93.692    -345.672
  H      225.321     -86.359    -351.662
  H      225.728     -87.864    -350.874
  H      224.102     -87.593    -351.453

 3  4  5  6  7  8  9  10  11  12  22  25  29  30  31  32 0
 6-311+G(2d,p)
 ****
 33  36  37 0
 6-311+G(2d,p)
 ****
 1  2  13  14  15  16  17  18  19  20  21  23  24  26 0
 3-21G
 ****
 27  28  34  35  38  39  40  41  42  43  44  45  46  47  48 0
 3-21G
 ****


