%nproc=1
%NoSave
%Mem=1900MB
#P OB98/GEN NMR

erre ene a

0 1
  C       46.632      37.669      21.469
  O       46.913      36.958      20.275
  P       45.731      36.419      19.344
  C       43.979      34.469      19.488
  O       45.133      35.095      20.004
  C       43.969      33.000      19.935
  O       44.999      32.263      19.246
  C       44.217      32.869      21.436
  O       42.989      32.793      22.141
  C       45.046      31.602      21.524
  O       44.196      30.440      21.476
  C       45.899      31.695      20.237
  N       47.121      32.522      20.271
  C       48.332      31.945      20.643
  O       48.465      30.758      20.923
  N       49.403      32.801      20.707
  C       49.382      34.130      20.397
  O       50.270      34.924      20.686
  C       48.154      34.610      19.757
  C       47.090      33.807      19.745
  O       46.507      35.872      18.057
  O       44.687      37.425      18.985
  H       44.778      29.660      21.438
  H       46.483      36.529      17.336
  H       50.253      32.420      21.110
  H       48.138      35.619      19.367
  H       46.157      34.155      19.310
  H       46.193      30.700      19.887
  H       45.581      31.546      22.470
  H       44.825      33.710      21.795
  H       43.001      32.555      19.669
  H       43.972      34.534      18.395
  H       43.080      34.980      19.848
  P       42.812      33.601      23.511
  C       44.208      33.762      25.655
  O       43.916      32.994      24.504
  O       41.423      33.656      24.053
  O       43.368      35.061      23.150
  H       42.620      35.657      22.937
  H       44.828      33.165      26.327
  H       43.286      34.041      26.174
  H       44.760      34.660      25.369
  H       47.550      37.942      21.946
  H       46.059      37.049      22.127
  H       46.075      38.552      21.235

 3  4  5  6  7  8  9  10  11  12  13  23  28  29  30  31  32 0
 6-311+G(2d,p)
 ****
 33  34 0
 6-311+G(2d,p)
 ****
 1  2  14  15  16  17  18  19  20  21  22  24  25  26  27 0
 3-21G
 ****
 35  36  37  38  39  40  41  42  43  44  45 0
 3-21G
 ****


