%nproc=1
%NoSave
%Mem=1900MB
#P OB98/GEN NMR

erre ene a

0 1
  C     -118.995      71.044     -83.381
  O     -120.292      71.197     -83.937
  P     -120.674      72.493     -84.802
  C     -122.140      72.910     -86.874
  O     -121.738      71.970     -85.882
  C     -123.142      72.266     -87.832
  O     -122.418      71.369     -88.709
  C     -124.228      71.413     -87.184
  O     -125.356      72.142     -86.723
  C     -124.643      70.541     -88.368
  O     -125.513      71.289     -89.239
  C     -123.303      70.272     -89.056
  N     -123.406      65.188     -89.642
  C     -124.110      66.182     -90.230
  N     -124.039      67.509     -90.004
  C     -123.093      67.783     -89.094
  C     -122.285      66.884     -88.411
  C     -122.471      65.521     -88.720
  N     -121.732      64.511     -88.136
  N     -121.442      67.545     -87.542
  C     -121.722      68.818     -87.704
  N     -122.704      69.018     -88.637
  O     -119.506      73.237     -85.352
  O     -121.568      73.379     -83.815
  H     -126.221      71.666     -88.677
  H     -121.626      74.295     -84.150
  H     -124.837      65.868     -90.973
  H     -121.251      69.628     -87.172
  H     -123.388      70.257     -90.148
  H     -125.193      69.644     -88.062
  H     -123.817      70.773     -86.393
  H     -123.583      73.057     -88.451
  H     -121.250      73.220     -87.436
  H     -121.844      63.586     -88.511
  H     -120.931      64.773     -87.577
  H     -122.565      73.794     -86.392
  P     -126.165      71.525     -85.474
  C     -127.770      72.659     -83.737
  O     -126.681      72.788     -84.628
  O     -125.422      70.497     -84.699
  O     -127.504      70.975     -86.155
  H     -128.098      71.659     -86.517
  H     -127.850      73.574     -83.148
  H     -127.616      71.819     -83.051
  H     -128.695      72.517     -84.298
  H     -118.944      70.120     -82.844
  H     -118.795      71.856     -82.713
  H     -118.268      71.041     -84.166

 3  4  5  6  7  8  9  10  11  12  22  25  29  30  31  32 0
 6-311+G(2d,p)
 ****
 33  36  37 0
 6-311+G(2d,p)
 ****
 1  2  13  14  15  16  17  18  19  20  21  23  24  26 0
 3-21G
 ****
 27  28  34  35  38  39  40  41  42  43  44  45  46  47  48 0
 3-21G
 ****


