%nproc=1
%NoSave
%Mem=1900MB
#P OB98/GEN NMR

erre ene a

0 1
  C     -159.207     268.736     536.884
  O     -158.981     269.158     535.556
  H     -159.750     267.786     536.864
  H     -159.817     269.475     537.408
  H     -158.263     268.587     537.420
  P     -157.958     270.362     535.288
  C     -156.969     271.358     533.124
  O     -158.091     270.738     533.730
  C     -156.990     271.149     531.604
  O     -156.973     269.719     531.324
  C     -158.226     271.742     530.910
  O     -157.827     272.139     529.589
  C     -159.148     270.541     530.842
  O     -160.178     270.730     529.904
  C     -158.142     269.422     530.530
  N     -158.675     268.092     530.809
  C     -159.550     267.563     529.863
  O     -159.899     268.174     528.849
  N     -160.050     266.324     530.139
  C     -159.814     265.599     531.270
  O     -160.321     264.504     531.475
  C     -158.926     266.225     532.254
  C     -158.395     267.428     531.985
  O     -156.559     270.144     535.759
  O     -158.639     271.626     536.003
  H     -160.795     271.431     530.207
  H     -157.947     272.244     536.318
  H     -160.674     265.919     529.451
  H     -158.726     265.683     533.170
  H     -157.739     267.917     532.695
  H     -157.845     269.455     529.470
  H     -159.622     270.363     531.812
  H     -158.660     272.586     531.449
  H     -156.060     271.564     531.180
  H     -156.063     270.901     533.544
  H     -156.968     272.428     533.353
  P     -156.877     273.407     529.333
  C     -155.368     274.307     527.436
  O     -156.434     273.420     527.786
  O     -155.738     273.527     530.295
  O     -157.849     274.675     529.446
  H     -157.341     275.461     529.745
  H     -155.166     274.226     526.388
  H     -154.490     274.046     527.990
  H     -155.650     275.313     527.668

 6  7  8  9  10  11  12  13  14  15  16  26  31  32  33  34  35 0
 6-311+G(2d,p)
 ****
 36  37 0
 6-311+G(2d,p)
 ****
 1  2  3  4  5  17  18  19  20  21  22  23  24  25 0
 3-21G
 ****
 27  28  29  30  38  39  40  41  42  43  44  45 0
 3-21G
 ****


