%nproc=1
%NoSave
%Mem=1900MB
#P OB98/GEN NMR

erre ene a

0 1
  C       65.686     402.144     325.226
  O       66.964     401.544     325.254
  H       65.775     403.134     324.768
  H       65.303     402.265     326.243
  H       64.987     401.549     324.635
  P       67.088     400.017     325.723
  C       66.766     399.125     323.326
  O       66.276     399.133     324.662
  C       66.699     397.710     322.755
  O       67.604     396.843     323.477
  C       65.328     397.058     322.885
  O       64.415     397.575     321.936
  C       65.688     395.595     322.702
  O       65.816     395.260     321.316
  C       67.059     395.508     323.411
  N       66.947     394.920     324.748
  C       66.893     393.532     324.806
  O       66.945     392.806     323.814
  N       66.714     392.992     326.053
  C       66.448     393.698     327.191
  O       66.051     393.177     328.229
  C       66.579     395.159     327.082
  C       66.805     395.696     325.881
  O       66.759     399.753     327.156
  O       68.614     399.648     325.398
  H       69.132     399.670     326.225
  H       65.915     394.286     321.283
  H       66.631     391.987     326.097
  H       66.446     395.750     327.981
  H       66.872     396.776     325.770
  H       67.758     394.903     322.823
  H       64.930     394.938     323.134
  H       64.941     397.207     323.902
  H       67.020     397.744     321.706
  H       67.807     399.466     323.333
  H       66.168     399.816     322.724
  P       62.838     397.459     322.184
  C       62.433     399.975     322.533
  O       62.385     398.679     323.123
  O       62.360     396.115     322.631
  O       62.192     397.848     320.768
  H       61.541     397.160     320.522
  H       62.111     400.704     323.247
  H       61.788     400.003     321.680
  H       63.436     400.192     322.229

 6  7  8  9  10  11  12  13  14  15  16  27  31  32  33  34  35 0
 6-311+G(2d,p)
 ****
 36  37 0
 6-311+G(2d,p)
 ****
 1  2  3  4  5  17  18  19  20  21  22  23  24  25 0
 3-21G
 ****
 26  28  29  30  38  39  40  41  42  43  44  45 0
 3-21G
 ****


