%nproc=1
%NoSave
%Mem=1900MB
#P OB98/GEN NMR

erre ene a

0 1
  C     -422.439      70.273     -12.317
  O     -422.329      71.542     -12.961
  P     -423.471      71.941     -14.010
  C     -424.880      73.595     -12.530
  O     -423.998      73.405     -13.627
  C     -424.700      74.995     -11.910
  O     -423.304      75.172     -11.569
  C     -425.051      76.163     -12.827
  O     -425.253      77.328     -12.030
  C     -423.771      76.315     -13.629
  O     -423.696      77.589     -14.262
  C     -422.682      76.024     -12.571
  N     -421.481      75.367     -13.122
  C     -420.569      76.140     -13.850
  O     -420.712      77.346     -14.058
  N     -419.493      75.476     -14.376
  C     -419.219      74.148     -14.217
  O     -418.284      73.583     -14.781
  C     -420.127      73.412     -13.335
  C     -421.202      74.036     -12.847
  O     -424.683      70.976     -13.630
  O     -423.055      71.795     -15.439
  H     -424.387      77.594     -14.965
  H     -424.772      70.261     -14.291
  H     -418.865      76.011     -14.960
  H     -419.904      72.363     -13.131
  H     -421.899      73.493     -12.204
  H     -422.350      76.947     -12.081
  H     -423.736      75.557     -14.420
  H     -425.916      75.996     -13.472
  H     -425.284      75.048     -10.976
  H     -424.708      72.818     -11.774
  H     -425.918      73.471     -12.870
  P     -426.756      77.851     -11.825
  C     -427.408      76.217      -9.948
  O     -427.133      77.564     -10.291
  O     -427.756      77.385     -12.833
  O     -426.588      79.444     -11.851
  H     -427.457      79.864     -12.033
  H     -427.139      76.058      -8.896
  H     -426.847      75.517     -10.571
  H     -428.481      76.028     -10.064
  H     -421.615      70.140     -11.648
  H     -422.429      69.497     -13.054
  H     -423.356      70.231     -11.766

 3  4  5  6  7  8  9  10  11  12  13  23  28  29  30  31  32 0
 6-311+G(2d,p)
 ****
 33  34 0
 6-311+G(2d,p)
 ****
 1  2  14  15  16  17  18  19  20  21  22  24  25  26  27 0
 3-21G
 ****
 35  36  37  38  39  40  41  42  43  44  45 0
 3-21G
 ****


