%nproc=1
%NoSave
%Mem=1900MB
#P OB98/GEN NMR

erre ene a

0 1
  C     -150.847     196.382     452.286
  O     -149.703     197.075     451.828
  P     -149.716     197.619     450.321
  C     -147.526     196.320     449.733
  O     -148.894     196.563     449.428
  C     -147.220     194.825     449.575
  O     -148.182     194.036     450.315
  C     -147.309     194.332     448.138
  O     -146.147     194.674     447.407
  C     -147.489     192.835     448.338
  O     -146.221     192.189     448.544
  C     -148.342     192.782     449.623
  N     -149.740     192.485     449.351
  C     -150.309     191.469     450.117
  O     -149.677     190.836     450.967
  N     -151.621     191.176     449.855
  C     -152.393     191.751     448.877
  O     -153.548     191.409     448.658
  C     -151.732     192.803     448.083
  C     -150.460     193.109     448.348
  O     -148.750     198.902     450.365
  O     -151.067     197.959     449.787
  H     -145.636     192.477     447.812
  H     -149.087     199.590     449.756
  H     -152.065     190.462     450.412
  H     -152.314     193.267     447.303
  H     -149.949     193.862     447.758
  H     -147.953     192.013     450.296
  H     -147.956     192.354     447.468
  H     -148.207     194.739     447.657
  H     -146.226     194.626     449.994
  H     -147.316     196.633     450.762
  H     -146.896     196.911     449.062
  P     -146.303     195.780     446.268
  C     -146.199     193.890     444.462
  O     -146.894     195.002     444.991
  O     -144.768     196.075     445.899
  O     -147.080     196.988     446.718
  H     -144.216     195.285     446.012
  H     -145.719     193.302     445.255
  H     -145.449     194.231     443.754
  H     -146.914     193.241     443.940
  H     -150.698     196.080     453.302
  H     -151.008     195.517     451.677
  H     -151.701     197.024     452.226

 3  4  5  6  7  8  9  10  11  12  13  23  28  29  30  31  32 0
 6-311+G(2d,p)
 ****
 33  34 0
 6-311+G(2d,p)
 ****
 1  2  14  15  16  17  18  19  20  21  22  24  25  26 0
 3-21G
 ****
 27  35  36  37  38  39  40  41  42  43  44  45 0
 3-21G
 ****


