%nproc=1
%NoSave
%Mem=1900MB
#P OB98/GEN NMR

erre ene a

0 1
  C      -19.693      10.494      -7.360
  O      -20.981      10.625      -6.798
  P      -22.043       9.433      -6.751
  C      -23.704      10.493      -8.444
  O      -22.832       9.407      -8.151
  C      -24.952      10.064      -9.229
  O      -24.555       9.537     -10.511
  C      -25.670       8.927      -8.497
  O      -26.568       9.212      -7.444
  C      -26.234       8.041      -9.601
  O      -27.615       8.301      -9.860
  C      -25.382       8.404     -10.818
  N      -24.630       4.918     -14.420
  C      -25.444       6.033     -14.446
  N      -26.300       6.116     -15.488
  N      -25.432       6.960     -13.524
  C      -24.592       6.688     -12.497
  C      -23.728       5.627     -12.367
  C      -23.722       4.631     -13.413
  O      -23.077       3.586     -13.387
  N      -23.082       5.639     -11.159
  C      -23.583       6.686     -10.537
  N      -24.532       7.331     -11.293
  O      -22.824       9.278      -5.487
  O      -21.078       8.145      -6.883
  H      -27.707       9.248     -10.070
  H      -21.475       7.428      -6.353
  H      -24.741       4.196     -15.120
  H      -23.321       6.998      -9.533
  H      -26.019       8.703     -11.660
  H      -26.168       6.983      -9.320
  H      -26.438       5.352     -16.134
  H      -24.891       8.318      -8.021
  H      -27.024       6.824     -15.451
  H      -25.593      10.922      -9.446
  H      -23.128      11.233      -9.008
  H      -24.015      10.972      -7.512
  P      -26.937       8.249      -6.223
  C      -28.974       7.085      -7.240
  O      -27.633       6.933      -6.809
  O      -28.147       8.993      -5.484
  O      -25.821       7.995      -5.263
  H      -28.207       8.686      -4.560
  H      -29.434       6.098      -7.327
  H      -28.990       7.572      -8.220
  H      -29.548       7.684      -6.528
  H      -19.170      11.423      -7.274
  H      -19.780      10.228      -8.393
  H      -19.153       9.731      -6.840

 3  4  5  6  7  8  9  10  11  12  23  26  30  31 0
 6-311+G(2d,p)
 ****
 33  35  36  37  38 0
 6-311+G(2d,p)
 ****
 1  2  13  14  15  16  17  18  19  20  21  22  24  25 0
 3-21G
 ****
 27  28  29  32  34  39  40  41  42  43  44  45  46  47  48  49 0
 3-21G
 ****


