%nproc=1
%NoSave
%Mem=1900MB
#P OB98/GEN NMR

erre ene a

0 1
  C     -119.939     -50.988     -32.133
  O     -118.901     -50.148     -31.672
  H     -120.867     -50.409     -32.167
  H     -120.079     -51.826     -31.447
  H     -119.722     -51.359     -33.139
  P     -117.405     -50.723     -31.622
  C     -116.423     -48.349     -31.529
  O     -116.508     -49.612     -30.887
  C     -115.464     -47.426     -30.778
  O     -116.059     -47.074     -29.502
  C     -114.094     -48.059     -30.500
  O     -113.096     -47.049     -30.636
  C     -114.193     -48.487     -29.048
  O     -112.917     -48.544     -28.412
  C     -115.118     -47.418     -28.466
  N     -115.073     -47.408     -23.414
  C     -114.260     -46.748     -24.315
  N     -113.272     -45.986     -23.796
  N     -114.404     -46.825     -25.613
  C     -115.442     -47.609     -25.993
  C     -116.315     -48.318     -25.199
  C     -116.138     -48.235     -23.766
  O     -116.815     -48.809     -22.920
  N     -117.217     -49.020     -25.961
  C     -116.889     -48.738     -27.206
  N     -115.812     -47.895     -27.280
  O     -116.855     -51.195     -32.930
  O     -117.480     -51.905     -30.548
  H     -112.442     -47.717     -28.645
  H     -117.537     -52.772     -30.992
  H     -114.912     -47.321     -22.427
  H     -117.390     -49.120     -28.087
  H     -114.573     -46.511     -28.174
  H     -114.653     -49.481     -28.987
  H     -113.113     -45.864     -22.810
  H     -113.868     -48.898     -31.164
  H     -112.679     -45.471     -24.439
  H     -115.359     -46.497     -31.348
  H     -117.425     -47.904     -31.545
  H     -116.081     -48.487     -32.561
  P     -112.244     -46.985     -31.991
  C     -111.540     -44.516     -31.759
  O     -111.103     -45.870     -31.815
  O     -113.039     -46.886     -33.251
  O     -111.400     -48.351     -31.945
  H     -111.235     -48.648     -32.861
  H     -110.693     -43.873     -31.641
  H     -112.203     -44.389     -30.929
  H     -112.052     -44.269     -32.665

 6  7  8  9  10  11  12  13  14  15  26  29  33  34 0
 6-311+G(2d,p)
 ****
 36  38  39  40  41 0
 6-311+G(2d,p)
 ****
 1  2  3  4  5  16  17  18  19  20  21  22  23  24  25 0
 3-21G
 ****
 27  28  30  31  32  35  37  42  43  44  45  46  47 0
 3-21G
 ****
 48  49 0
 3-21G
 ****


