%nproc=1
%NoSave
%Mem=1900MB
#P OB98/GEN NMR

erre ene a

0 1
  C     -222.556    -192.279    -147.702
  O     -223.675    -191.751    -148.383
  H     -222.455    -191.761    -146.745
  H     -221.646    -192.115    -148.285
  H     -222.687    -193.348    -147.510
  P     -224.131    -192.427    -149.763
  C     -226.603    -192.005    -149.164
  O     -225.570    -191.820    -150.126
  C     -227.933    -191.513    -149.728
  O     -227.907    -190.079    -149.899
  C     -228.270    -192.089    -151.100
  O     -228.711    -193.427    -150.990
  C     -229.327    -191.096    -151.563
  O     -230.600    -191.377    -150.964
  C     -228.756    -189.760    -151.025
  N     -228.025    -189.004    -152.043
  C     -228.637    -187.838    -152.493
  O     -229.728    -187.445    -152.086
  N     -227.965    -187.156    -153.475
  C     -226.821    -187.570    -154.094
  O     -226.374    -187.048    -155.112
  C     -226.182    -188.766    -153.522
  C     -226.812    -189.427    -152.549
  O     -224.043    -193.916    -149.816
  O     -223.171    -191.745    -150.850
  H     -222.449    -192.362    -151.076
  H     -231.129    -190.560    -151.037
  H     -228.423    -186.336    -153.844
  H     -225.238    -189.089    -153.942
  H     -226.375    -190.328    -152.132
  H     -229.566    -189.125    -150.642
  H     -229.472    -191.118    -152.646
  H     -227.402    -192.016    -151.763
  H     -228.722    -191.751    -149.000
  H     -226.351    -191.426    -148.268
  H     -226.661    -193.064    -148.898
  P     -228.416    -194.492    -152.149
  C     -227.121    -196.368    -150.979
  O     -228.380    -195.950    -151.486
  O     -227.243    -194.177    -153.015
  O     -229.769    -194.522    -153.009
  H     -229.553    -194.365    -153.948
  H     -227.212    -197.349    -150.562
  H     -226.798    -195.687    -150.220
  H     -226.404    -196.383    -151.773

 6  7  8  9  10  11  12  13  14  15  16  27  31  32  33  34  35 0
 6-311+G(2d,p)
 ****
 36  37 0
 6-311+G(2d,p)
 ****
 1  2  3  4  5  17  18  19  20  21  22  23  24  25 0
 3-21G
 ****
 26  28  29  30  38  39  40  41  42  43  44  45 0
 3-21G
 ****


