%nproc=1
%NoSave
%Mem=1900MB
#P OB98/GEN NMR

erre ene a

0 1
  C      454.011     -22.118     -71.942
  O      453.838     -23.358     -71.284
  H      453.182     -21.459     -71.669
  H      454.010     -22.250     -73.026
  H      454.946     -21.653     -71.623
  P      454.831     -24.564     -71.635
  C      454.577     -25.880     -69.434
  O      454.294     -25.844     -70.828
  C      453.501     -25.135     -68.645
  O      452.201     -25.661     -69.024
  C      453.647     -25.271     -67.126
  O      453.279     -24.031     -66.524
  C      452.632     -26.347     -66.791
  O      452.219     -26.272     -65.441
  C      451.531     -26.091     -67.824
  N      450.724     -27.290     -68.044
  C      449.382     -27.223     -67.648
  O      448.933     -26.186     -67.155
  N      448.602     -28.343     -67.751
  C      449.124     -29.455     -68.166
  N      448.305     -30.539     -68.210
  C      450.540     -29.580     -68.569
  C      451.273     -28.475     -68.484
  O      456.287     -24.287     -71.469
  O      454.472     -24.918     -73.155
  H      451.797     -25.401     -65.277
  H      455.036     -24.402     -73.760
  H      450.928     -30.534     -68.900
  H      452.326     -28.472     -68.750
  H      450.872     -25.277     -67.496
  H      453.077     -27.338     -66.951
  H      454.660     -25.555     -66.817
  H      453.512     -24.079     -68.948
  H      447.347     -30.411     -67.901
  H      455.547     -25.399     -69.278
  H      448.606     -31.465     -68.471
  H      454.639     -26.919     -69.097
  P      454.324     -22.815     -66.456
  C      452.863     -20.747     -66.831
  O      453.580     -21.514     -65.869
  O      455.086     -22.574     -67.719
  O      455.321     -23.231     -65.270
  H      456.203     -22.856     -65.448
  H      452.405     -19.908     -66.349
  H      452.107     -21.356     -67.281
  H      453.538     -20.400     -67.586

 6  7  8  9  10  11  12  13  14  15  16  26  30  31  32  33  35 0
 6-311+G(2d,p)
 ****
 37  38 0
 6-311+G(2d,p)
 ****
 1  2  3  4  5  17  18  19  20  21  22  23  24  25 0
 3-21G
 ****
 27  28  29  34  36  39  40  41  42  43  44  45  46 0
 3-21G
 ****


