%nproc=1
%NoSave
%Mem=1900MB
#P OB98/GEN NMR

erre ene a

0 1
  C      138.570      43.016      43.551
  O      137.766      43.730      44.478
  P      136.774      44.895      43.988
  C      137.141      47.230      42.976
  O      137.723      46.157      43.707
  C      137.752      48.558      43.415
  O      137.448      48.759      44.816
  C      139.276      48.658      43.314
  O      139.761      49.022      42.032
  C      139.546      49.794      44.297
  O      139.254      51.060      43.672
  C      138.539      49.508      45.413
  N      139.121      49.223      50.493
  C      138.459      50.104      49.704
  N      138.367      50.123      48.355
  C      139.014      49.070      47.824
  C      139.727      48.091      48.499
  C      139.767      48.193      49.901
  N      140.424      47.281      50.702
  N      140.274      47.183      47.608
  C      139.882      47.607      46.425
  N      139.115      48.737      46.501
  O      135.615      45.139      44.889
  O      136.332      44.444      42.519
  H      139.670      51.041      42.788
  H      135.536      44.939      42.240
  H      137.939      50.907      50.225
  H      140.134      47.131      45.485
  H      138.111      50.424      45.840
  H      140.592      49.833      44.623
  H      139.762      47.745      43.680
  H      137.272      49.367      42.847
  H      136.065      47.244      43.180
  H      140.290      47.362      51.700
  H      140.766      46.432      50.278
  H      137.284      47.064      41.902
  P      141.188      48.421      41.590
  C      143.605      48.689      42.558
  O      142.272      49.153      42.517
  O      141.454      48.470      40.125
  O      141.141      46.929      42.181
  H      141.142      46.871      43.152
  H      144.210      49.413      43.114
  H      144.016      48.593      41.552
  H      143.649      47.724      43.074
  H      139.155      42.288      44.073
  H      139.219      43.698      43.043
  H      137.941      42.524      42.839

 3  4  5  6  7  8  9  10  11  12  22  25  29  30  31  32 0
 6-311+G(2d,p)
 ****
 33  36  37 0
 6-311+G(2d,p)
 ****
 1  2  13  14  15  16  17  18  19  20  21  23  24  26 0
 3-21G
 ****
 27  28  34  35  38  39  40  41  42  43  44  45  46  47  48 0
 3-21G
 ****


