%nproc=1
%NoSave
%Mem=1900MB
#P OB98/GEN NMR

erre ene a

0 1
  C      255.710     -68.209      88.640
  O      255.624     -67.481      89.864
  P      255.395     -65.896      89.797
  C      253.032     -65.613      88.799
  O      253.829     -65.598      89.979
  C      251.715     -64.851      89.025
  O      251.020     -64.729      87.754
  C      250.727     -65.536      89.974
  O      250.819     -65.252      91.367
  C      249.400     -64.949      89.497
  O      249.192     -63.659      90.103
  C      249.599     -64.782      87.994
  N      245.197     -66.959      86.558
  C      245.462     -65.886      87.334
  N      246.664     -65.373      87.668
  C      247.658     -66.075      87.101
  C      247.539     -67.188      86.286
  C      246.236     -67.638      86.016
  N      245.965     -68.737      85.235
  N      248.782     -67.644      85.901
  C      249.635     -66.830      86.490
  N      249.006     -65.858      87.216
  O      256.056     -65.189      88.663
  O      255.997     -65.402      91.200
  H      249.335     -63.778      91.061
  H      256.448     -64.546      91.067
  H      244.596     -65.374      87.742
  H      250.711     -66.908      86.420
  H      249.170     -63.846      87.618
  H      248.544     -65.570      89.780
  H      250.727     -66.623      89.821
  H      251.943     -63.841      89.387
  H      252.815     -66.647      88.517
  H      245.004     -69.019      85.129
  H      246.729     -69.288      84.872
  H      253.630     -65.185      87.994
  P      251.288     -66.365      92.418
  C      253.642     -65.320      92.874
  O      252.360     -65.641      93.365
  O      251.757     -67.644      91.817
  O      250.010     -66.508      93.367
  H      249.829     -65.728      93.918
  H      254.134     -64.651      93.587
  H      253.576     -64.817      91.907
  H      254.240     -66.231      92.779
  H      255.862     -69.247      88.852
  H      256.531     -67.839      88.062
  H      254.801     -68.088      88.088

 3  4  5  6  7  8  9  10  11  12  22  25  29  30  31  32 0
 6-311+G(2d,p)
 ****
 33  36  37 0
 6-311+G(2d,p)
 ****
 1  2  13  14  15  16  17  18  19  20  21  23  24  26 0
 3-21G
 ****
 27  28  34  35  38  39  40  41  42  43  44  45  46  47  48 0
 3-21G
 ****


