%nproc=1
%NoSave
%Mem=1900MB
#P OB98/GEN NMR

erre ene a

0 1
  C     -299.102    -321.269     318.802
  O     -299.315    -321.250     320.203
  H     -298.164    -321.788     318.598
  H     -299.031    -320.246     318.423
  H     -299.917    -321.798     318.302
  P     -300.748    -320.740     320.701
  C     -300.120    -321.370     323.169
  O     -300.616    -320.389     322.264
  C     -299.614    -320.696     324.444
  O     -298.564    -319.761     324.148
  C     -300.660    -319.850     325.160
  O     -301.638    -320.629     325.807
  C     -299.775    -319.065     326.123
  O     -299.499    -319.802     327.314
  C     -298.481    -318.866     325.284
  N     -298.296    -317.481     324.890
  C     -297.619    -316.676     325.815
  O     -297.202    -317.173     326.861
  N     -297.459    -315.349     325.538
  C     -297.961    -314.855     324.454
  N     -297.801    -313.511     324.257
  C     -298.692    -315.661     323.453
  C     -298.823    -316.958     323.736
  O     -301.613    -322.089     320.702
  O     -301.336    -319.639     319.885
  H     -298.888    -319.246     327.843
  H     -301.180    -322.831     321.152
  H     -299.085    -315.200     322.555
  H     -299.340    -317.621     323.053
  H     -297.605    -319.175     325.863
  H     -300.246    -318.127     326.425
  H     -301.115    -319.143     324.454
  H     -299.213    -321.478     325.105
  H     -297.342    -312.994     324.992
  H     -299.318    -321.959     322.706
  H     -298.214    -313.004     323.490
  H     -300.942    -322.058     323.398
  P     -303.196    -320.281     325.684
  C     -304.015    -322.569     324.807
  O     -303.999    -321.659     325.909
  O     -303.586    -319.543     324.448
  O     -303.505    -319.495     327.038
  H     -303.331    -319.996     327.852
  H     -304.574    -323.442     325.073
  H     -303.012    -322.849     324.561
  H     -304.471    -322.097     323.962

 6  7  8  9  10  11  12  13  14  15  16  26  30  31  32  33  35 0
 6-311+G(2d,p)
 ****
 37  38 0
 6-311+G(2d,p)
 ****
 1  2  3  4  5  17  18  19  20  21  22  23  24  25 0
 3-21G
 ****
 27  28  29  34  36  39  40  41  42  43  44  45  46 0
 3-21G
 ****


