%nproc=1
%NoSave
%Mem=1900MB
#P OB98/GEN NMR

erre ene a

0 1
  C      583.659     566.448    -372.962
  O      584.240     566.888    -374.169
  H      583.442     565.384    -373.045
  H      582.724     566.988    -372.784
  H      584.336     566.605    -372.118
  P      584.981     568.308    -374.200
  C      587.245     567.233    -373.573
  O      586.262     568.193    -373.236
  C      588.372     567.202    -372.538
  O      588.746     568.561    -372.192
  C      587.894     566.531    -371.248
  O      588.960     565.907    -370.539
  C      587.380     567.711    -370.426
  O      587.336     567.435    -369.029
  C      588.370     568.799    -370.813
  N      587.633     572.802    -367.759
  C      588.108     571.539    -367.455
  N      588.418     571.317    -366.147
  N      588.269     570.587    -368.336
  C      587.858     570.934    -369.575
  C      587.342     572.143    -370.005
  C      587.210     573.206    -369.021
  O      586.768     574.330    -369.235
  N      587.015     572.110    -371.332
  C      587.320     570.887    -371.716
  N      587.854     570.138    -370.689
  O      584.006     569.266    -373.371
  O      585.263     568.864    -375.564
  H      587.133     568.276    -368.567
  H      584.131     570.193    -373.636
  H      587.547     573.508    -367.045
  H      587.194     570.493    -372.723
  H      589.277     568.734    -370.209
  H      586.355     567.924    -370.747
  H      588.150     571.953    -365.422
  H      587.108     565.791    -371.433
  H      588.481     570.334    -365.864
  H      589.264     566.724    -372.962
  H      587.649     567.510    -374.551
  H      586.787     566.241    -373.674
  P      589.279     564.370    -370.876
  C      591.887     564.697    -370.808
  O      590.737     564.308    -371.538
  O      588.277     564.035    -372.094
  O      589.088     563.450    -369.721
  H      587.541     563.480    -371.765
  H      592.755     564.583    -371.423
  H      591.983     564.081    -369.938
  H      591.792     565.721    -370.512

 6  7  8  9  10  11  12  13  14  15  26  29  33  34 0
 6-311+G(2d,p)
 ****
 36  38  39  40  41 0
 6-311+G(2d,p)
 ****
 1  2  3  4  5  16  17  18  19  20  21  22  23  24  25 0
 3-21G
 ****
 27  28  30  31  32  35  37  42  43  44  45  46  47 0
 3-21G
 ****
 48  49 0
 3-21G
 ****


