%nproc=1
%NoSave
%Mem=1900MB
#P OB98/GEN NMR

erre ene a

0 1
  C     -400.612    -964.906     434.450
  O     -400.274    -963.530     434.537
  H     -400.214    -965.305     433.506
  H     -401.698    -965.039     434.466
  H     -400.159    -965.458     435.277
  P     -400.960    -962.662     435.693
  C     -403.205    -961.393     435.521
  O     -402.536    -962.630     435.316
  C     -404.698    -961.504     435.250
  O     -404.955    -962.078     433.948
  C     -405.427    -962.442     436.220
  O     -405.487    -961.975     437.549
  C     -406.735    -962.720     435.467
  O     -407.692    -961.673     435.641
  C     -406.237    -962.741     434.000
  N     -406.170    -964.090     433.459
  C     -405.415    -964.260     432.287
  O     -404.842    -963.311     431.720
  N     -405.343    -965.515     431.788
  C     -405.993    -966.608     432.294
  O     -405.906    -967.723     431.771
  C     -406.805    -966.385     433.495
  C     -406.851    -965.157     434.016
  O     -400.372    -961.296     435.917
  O     -400.920    -963.608     436.979
  H     -408.412    -961.839     435.008
  H     -401.093    -963.095     437.804
  H     -404.802    -965.659     430.948
  H     -407.341    -967.232     433.910
  H     -407.452    -964.958     434.914
  H     -406.912    -962.148     433.359
  H     -407.200    -963.657     435.779
  H     -404.894    -963.405     436.249
  H     -405.141    -960.502     435.266
  H     -402.772    -960.651     434.829
  H     -403.029    -961.051     436.549
  P     -405.754    -962.915     438.808
  C     -407.900    -963.921     439.911
  O     -407.257    -963.471     438.735
  O     -405.251    -962.422     440.130
  O     -404.881    -964.233     438.411
  H     -404.531    -964.607     439.267
  H     -408.889    -964.253     439.672
  H     -407.954    -963.119     440.617
  H     -407.344    -964.731     440.334

 6  7  8  9  10  11  12  13  14  15  16  26  31  32  33  34  35 0
 6-311+G(2d,p)
 ****
 36  37 0
 6-311+G(2d,p)
 ****
 1  2  3  4  5  17  18  19  20  21  22  23  24  25 0
 3-21G
 ****
 27  28  29  30  38  39  40  41  42  43  44  45 0
 3-21G
 ****


