%nproc=1
%NoSave
%Mem=1900MB
#P OB98/GEN NMR

erre ene a

0 1
  C     -226.365     251.099    -178.347
  O     -226.004     251.670    -177.108
  H     -226.472     250.019    -178.216
  H     -225.577     251.289    -179.081
  H     -227.313     251.504    -178.714
  P     -226.221     253.240    -176.889
  C     -224.113     254.631    -176.352
  O     -224.889     254.002    -177.366
  C     -223.216     253.628    -175.624
  O     -222.523     252.806    -176.587
  C     -222.144     254.312    -174.769
  O     -222.561     254.648    -173.458
  C     -221.042     253.253    -174.741
  O     -221.232     252.333    -173.654
  C     -221.204     252.537    -176.086
  N     -216.741     251.498    -178.360
  C     -217.314     250.888    -177.256
  N     -216.585     249.911    -176.676
  N     -218.482     251.229    -176.776
  C     -219.043     252.289    -177.402
  C     -218.560     252.984    -178.490
  C     -217.303     252.553    -179.066
  O     -216.763     253.048    -180.048
  N     -219.387     254.030    -178.829
  C     -220.319     254.013    -177.893
  N     -220.195     252.930    -177.056
  O     -226.163     253.405    -175.295
  O     -227.505     253.794    -177.431
  H     -221.221     252.845    -172.823
  H     -226.737     254.143    -175.022
  H     -215.854     251.173    -178.705
  H     -221.122     254.738    -177.805
  H     -221.126     251.448    -175.969
  H     -220.062     253.716    -174.594
  H     -215.649     249.668    -176.952
  H     -221.751     255.199    -175.278
  H     -216.885     249.570    -175.759
  H     -223.842     252.958    -175.018
  H     -224.821     255.077    -175.651
  H     -223.513     255.439    -176.779
  P     -221.757     255.722    -172.590
  C     -220.418     254.932    -170.470
  O     -220.536     254.979    -171.876
  O     -222.758     256.030    -171.379
  O     -221.351     256.962    -173.313
  H     -223.248     256.856    -171.545
  H     -219.535     254.390    -170.204
  H     -221.275     254.443    -170.056
  H     -220.355     255.928    -170.084

 6  7  8  9  10  11  12  13  14  15  26  29  33  34 0
 6-311+G(2d,p)
 ****
 36  38  39  40  41 0
 6-311+G(2d,p)
 ****
 1  2  3  4  5  16  17  18  19  20  21  22  23  24  25 0
 3-21G
 ****
 27  28  30  31  32  35  37  42  43  44  45  46  47 0
 3-21G
 ****
 48  49 0
 3-21G
 ****


