%nproc=1
%NoSave
%Mem=1900MB
#P OB98/GEN NMR

erre ene a

0 1
  C      548.487     627.540    1971.156
  O      548.557     628.705    1970.378
  H      547.515     627.505    1971.665
  H      549.269     627.547    1971.933
  H      548.594     626.649    1970.535
  P      549.921     629.033    1969.587
  C      548.766     628.452    1967.334
  O      549.863     628.205    1968.217
  C      548.779     627.459    1966.180
  O      550.006     627.648    1965.432
  C      548.721     625.984    1966.652
  O      547.648     625.251    1966.031
  C      550.140     625.516    1966.460
  O      550.269     624.109    1966.277
  C      550.658     626.369    1965.283
  N      552.102     626.530    1965.262
  C      552.725     626.515    1964.010
  O      552.148     626.376    1962.928
  N      554.084     626.680    1964.023
  C      554.885     626.826    1965.146
  O      556.082     626.960    1965.095
  C      554.151     626.797    1966.430
  C      552.821     626.653    1966.432
  O      551.173     628.848    1970.371
  O      549.733     630.549    1969.093
  H      551.231     623.930    1966.173
  H      550.284     631.130    1969.652
  H      554.537     626.692    1963.137
  H      554.731     626.918    1967.331
  H      552.268     626.647    1967.378
  H      550.336     625.941    1964.339
  H      550.723     625.768    1967.368
  H      548.464     625.944    1967.711
  H      547.927     627.705    1965.511
  H      548.875     629.481    1966.969
  H      547.833     628.358    1967.895
  P      546.197     625.047    1966.661
  C      544.623     626.111    1964.830
  O      545.249     626.210    1966.094
  O      546.137     624.771    1968.131
  O      545.652     623.731    1965.894
  H      545.054     623.279    1966.523
  H      544.040     626.990    1964.651
  H      543.986     625.252    1964.814
  H      545.369     626.016    1964.069

 6  7  8  9  10  11  12  13  14  15  16  26  31  32  33  34  35 0
 6-311+G(2d,p)
 ****
 36  37 0
 6-311+G(2d,p)
 ****
 1  2  3  4  5  17  18  19  20  21  22  23  24  25 0
 3-21G
 ****
 27  28  29  30  38  39  40  41  42  43  44  45 0
 3-21G
 ****


