%nproc=1
%NoSave
%Mem=1900MB
#P OB98/GEN NMR

erre ene a

0 1
  C      221.443    -283.786    -114.732
  O      222.457    -282.800    -114.778
  P      222.068    -281.259    -114.969
  C      223.314    -280.243    -112.921
  O      223.254    -280.391    -114.326
  C      224.656    -279.628    -112.491
  O      225.708    -280.547    -112.870
  C      225.001    -278.304    -113.165
  O      226.015    -277.652    -112.398
  C      225.584    -278.769    -114.486
  O      226.387    -277.769    -115.103
  C      226.330    -280.067    -114.083
  N      226.250    -281.090    -115.143
  C      227.235    -281.059    -116.121
  O      228.187    -280.281    -116.090
  N      227.046    -281.894    -117.187
  C      225.962    -282.704    -117.376
  O      225.654    -283.204    -118.453
  C      225.083    -282.869    -116.204
  C      225.249    -282.046    -115.164
  O      220.853    -281.068    -113.943
  O      221.685    -280.875    -116.356
  H      227.117    -277.564    -114.477
  H      220.002    -281.156    -114.411
  H      227.684    -281.770    -117.963
  H      224.299    -283.608    -116.254
  H      224.584    -282.109    -114.309
  H      227.391    -279.874    -113.881
  H      224.762    -279.007    -115.173
  H      224.148    -277.635    -113.311
  H      224.673    -279.524    -111.400
  H      223.170    -281.216    -112.449
  H      222.499    -279.601    -112.575
  P      226.040    -276.050    -112.396
  C      226.515    -275.766    -109.890
  O      227.018    -275.618    -111.202
  O      224.710    -275.375    -112.418
  O      226.905    -275.701    -113.705
  H      226.743    -274.778    -113.967
  H      227.357    -275.946    -109.214
  H      225.818    -276.603    -109.818
  H      226.011    -274.844    -109.588
  H      221.889    -284.750    -114.600
  H      220.889    -283.771    -115.647
  H      220.785    -283.583    -113.913

 3  4  5  6  7  8  9  10  11  12  13  23  28  29  30  31  32 0
 6-311+G(2d,p)
 ****
 33  34 0
 6-311+G(2d,p)
 ****
 1  2  14  15  16  17  18  19  20  21  22  24  25  26  27 0
 3-21G
 ****
 35  36  37  38  39  40  41  42  43  44  45 0
 3-21G
 ****


