%nproc=1
%NoSave
%Mem=1900MB
#P OB98/GEN NMR

erre ene a

0 1
  C       -5.891     596.308    -307.091
  O       -5.465     595.617    -305.933
  H       -6.161     597.339    -306.838
  H       -5.066     596.325    -307.810
  H       -6.745     595.798    -307.545
  P       -6.548     595.454    -304.758
  C       -5.404     597.540    -303.719
  O       -6.627     596.876    -304.020
  C       -5.612     598.515    -302.559
  O       -4.362     599.161    -302.230
  C       -6.598     599.643    -302.846
  O       -7.944     599.215    -302.701
  C       -6.215     600.638    -301.756
  O       -6.791     600.228    -300.500
  C       -4.682     600.484    -301.705
  N       -1.646     604.599    -301.514
  C       -2.120     603.782    -300.552
  N       -2.910     602.694    -300.679
  C       -3.189     602.466    -301.976
  C       -2.758     603.195    -303.070
  C       -1.956     604.320    -302.806
  N       -1.531     605.192    -303.802
  N       -3.269     602.663    -304.244
  C       -4.002     601.644    -303.855
  N       -3.983     601.477    -302.495
  O       -5.788     594.512    -303.704
  O       -7.857     594.869    -305.177
  H       -6.348     599.393    -300.251
  H       -6.072     593.587    -303.835
  H       -1.838     604.041    -299.532
  H       -4.569     600.998    -304.517
  H       -4.296     600.527    -300.682
  H       -6.562     601.656    -301.959
  H       -6.421     600.100    -303.824
  H       -5.925     597.933    -301.679
  H       -5.065     598.093    -304.597
  H       -1.390     606.142    -303.475
  H       -2.010     605.075    -304.689
  H       -4.655     596.792    -303.452
  P       -8.970     599.555    -303.890
  C      -10.456     600.990    -302.330
  O       -9.660     600.961    -303.509
  O      -10.139     598.487    -303.671
  O       -8.402     599.465    -305.267
  H      -10.267     597.964    -304.491
  H      -10.853     601.974    -302.192
  H       -9.853     600.727    -301.486
  H      -11.260     600.291    -302.425

 6  7  8  9  10  11  12  13  14  15  25  28  32  33  34  35 0
 6-311+G(2d,p)
 ****
 36  39  40 0
 6-311+G(2d,p)
 ****
 1  2  3  4  5  16  17  18  19  20  21  22  23  24 0
 3-21G
 ****
 26  27  29  30  31  37  38  41  42  43  44  45  46  47  48 0
 3-21G
 ****


