%nproc=1
%NoSave
%Mem=1900MB
#P OB98/GEN NMR

erre ene a

0 1
  C      -33.522     299.547    -467.986
  O      -34.806     299.004    -467.735
  H      -32.783     298.978    -467.415
  H      -33.473     300.592    -467.672
  H      -33.278     299.469    -469.049
  P      -36.081     299.761    -468.341
  C      -37.233     302.031    -467.871
  O      -36.271     301.073    -467.440
  C      -37.112     303.303    -467.032
  O      -35.993     304.096    -467.492
  C      -38.332     304.213    -467.148
  O      -39.410     303.700    -466.380
  C      -37.753     305.529    -466.669
  O      -37.684     305.581    -465.239
  C      -36.337     305.485    -467.289
  N      -36.250     306.230    -468.547
  C      -35.900     307.579    -468.436
  O      -35.677     308.081    -467.331
  N      -35.829     308.334    -469.584
  C      -36.076     307.785    -470.736
  N      -35.989     308.587    -471.831
  C      -36.432     306.363    -470.896
  C      -36.507     305.651    -469.770
  O      -37.328     298.951    -468.516
  O      -35.545     300.347    -469.735
  H      -37.235     306.420    -465.020
  H      -35.684     299.703    -470.449
  H      -36.622     305.945    -471.879
  H      -36.760     304.601    -469.799
  H      -35.598     305.900    -466.599
  H      -38.355     306.371    -467.008
  H      -38.625     304.326    -468.199
  H      -36.927     303.016    -465.992
  H      -35.746     309.560    -471.673
  H      -38.216     301.579    -467.731
  H      -36.066     308.254    -472.782
  H      -37.098     302.263    -468.935
  P      -40.917     304.147    -466.702
  C      -42.064     306.456    -466.817
  O      -41.010     305.690    -466.250
  O      -41.976     303.254    -466.154
  O      -40.937     304.250    -468.301
  H      -40.943     303.356    -468.722
  H      -42.019     307.457    -466.441
  H      -43.004     306.018    -466.554
  H      -41.962     306.470    -467.882

 6  7  8  9  10  11  12  13  14  15  16  26  30  31  32  33  35 0
 6-311+G(2d,p)
 ****
 37  38 0
 6-311+G(2d,p)
 ****
 1  2  3  4  5  17  18  19  20  21  22  23  24  25 0
 3-21G
 ****
 27  28  29  34  36  39  40  41  42  43  44  45  46 0
 3-21G
 ****


