%nproc=1
%NoSave
%Mem=1900MB
#P OB98/GEN NMR

erre ene a

0 1
  C       55.270     -98.630     -16.032
  O       54.064     -97.926     -15.777
  P       52.682     -98.658     -16.138
  C       51.906     -96.590     -17.486
  O       52.156     -97.989     -17.501
  C       50.799     -96.226     -18.468
  O       50.444     -94.828     -18.279
  C       51.180     -96.410     -19.945
  O       50.085     -97.022     -20.643
  C       51.314     -94.986     -20.457
  O       51.091     -94.900     -21.860
  C       50.262     -94.282     -19.601
  N       48.456     -90.011     -21.598
  C       47.952     -91.295     -21.659
  N       46.840     -91.470     -22.406
  N       48.489     -92.317     -21.047
  C       49.580     -91.987     -20.311
  C       50.169     -90.753     -20.165
  C       49.597     -89.643     -20.897
  O       50.048     -88.501     -20.957
  N       51.250     -90.812     -19.323
  C       51.318     -92.079     -18.963
  N       50.355     -92.842     -19.574
  O       51.681     -98.093     -15.026
  O       52.726    -100.146     -16.123
  H       51.840     -95.347     -22.297
  H       51.278     -98.837     -14.537
  H       48.013     -89.264     -22.104
  H       52.061     -92.492     -18.292
  H       49.252     -94.545     -19.943
  H       52.323     -94.620     -20.240
  H       46.356     -90.722     -22.874
  H       52.092     -96.995     -20.105
  H       46.443     -92.400     -22.445
  H       49.907     -96.817     -18.223
  H       52.822     -96.058     -17.764
  H       51.621     -96.293     -16.471
  P       50.482     -98.038     -21.822
  C       48.572     -96.998     -23.255
  O       49.933     -97.376     -23.171
  O       49.506     -99.282     -21.581
  O       51.922     -98.431     -21.823
  H       49.889    -100.095     -21.961
  H       48.066     -97.063     -22.287
  H       48.063     -97.656     -23.964
  H       48.511     -95.969     -23.617
  H       56.104     -98.024     -15.745
  H       55.337     -98.857     -17.076
  H       55.278     -99.539     -15.468

 3  4  5  6  7  8  9  10  11  12  23  26  30  31  33  0
 6-311+G(2d,p)
 ****
 35  36  37  38 0
 6-311+G(2d,p)
 ****
 1  2  13  14  15  16  17  18  19  20  21  22  24  25  27  28  29 0
 3-21G
 ****
 32  34  39  40  41  42  43  44  45  46  47  48  49 0
 3-21G
 ****


