%nproc=1
%NoSave
%Mem=1900MB
#P OB98/GEN NMR

erre ene a

0 1
  C      897.475    -646.593     368.373
  O      897.954    -645.430     367.741
  H      897.519    -647.421     367.655
  H      896.436    -646.452     368.682
  H      898.082    -646.854     369.244
  P      898.302    -644.153     368.646
  C      900.817    -644.390     368.106
  O      899.827    -644.308     369.113
  C      902.105    -645.025     368.642
  O      902.668    -644.157     369.664
  C      901.829    -646.380     369.311
  O      902.956    -647.248     369.246
  C      901.574    -645.992     370.756
  O      901.797    -647.068     371.673
  C      902.553    -644.830     370.927
  N      902.410    -643.721     375.906
  C      902.749    -644.900     375.295
  N      903.106    -645.926     376.110
  N      902.726    -645.069     373.996
  C      902.292    -643.992     373.311
  C      901.896    -642.766     373.809
  C      901.962    -642.574     375.251
  O      901.648    -641.563     375.851
  N      901.486    -641.919     372.814
  C      901.638    -642.621     371.708
  N      902.139    -643.882     371.954
  O      897.489    -644.414     370.001
  O      897.958    -642.817     368.046
  H      901.161    -647.777     371.461
  H      897.336    -643.572     370.477
  H      902.478    -643.632     376.915
  H      901.411    -642.265     370.705
  H      903.551    -645.192     371.208
  H      900.535    -645.691     370.860
  H      902.956    -645.890     377.102
  H      900.954    -646.881     368.894
  H      903.061    -646.869     375.693
  H      902.851    -645.095     367.843
  H      901.003    -643.366     367.759
  H      900.442    -644.948     367.242
  P      902.891    -648.523     368.271
  C      904.694    -647.643     366.542
  O      903.383    -648.120     366.809
  O      901.310    -648.766     368.074
  O      903.581    -649.736     368.788
  H      901.048    -649.625     368.456
  H      904.793    -647.438     365.496
  H      905.409    -648.385     366.829
  H      904.868    -646.746     367.099

 6  7  8  9  10  11  12  13  14  15  26  29  33  34 0
 6-311+G(2d,p)
 ****
 36  38  39  40  41 0
 6-311+G(2d,p)
 ****
 1  2  3  4  5  16  17  18  19  20  21  22  23  24  25 0
 3-21G
 ****
 27  28  30  31  32  35  37  42  43  44  45  46  47 0
 3-21G
 ****
 48  49 0
 3-21G
 ****


