%nproc=1
%NoSave
%Mem=1900MB
#P OB98/GEN NMR

erre ene a

0 1
  C      155.775    -271.653     154.245
  O      155.207    -272.794     154.862
  H      156.848    -271.808     154.106
  H      155.309    -271.517     153.263
  H      155.599    -270.759     154.848
  P      155.514    -273.018     156.420
  C      155.550    -275.568     156.906
  O      154.770    -274.380     156.837
  C      154.650    -276.802     156.815
  O      153.801    -276.843     157.996
  C      153.737    -276.830     155.578
  O      153.657    -278.171     155.102
  C      152.380    -276.426     156.141
  O      151.295    -276.911     155.361
  C      152.449    -277.025     157.541
  N      147.526    -276.789     158.804
  C      148.234    -277.701     158.097
  N      149.562    -277.712     157.851
  C      150.171    -276.693     158.478
  C      149.583    -275.691     159.236
  C      148.186    -275.760     159.376
  N      147.448    -274.798     160.036
  N      150.542    -274.785     159.661
  C      151.675    -275.222     159.157
  N      151.502    -276.366     158.427
  O      154.621    -271.876     157.110
  O      156.951    -272.917     156.808
  H      150.456    -276.614     155.769
  H      155.134    -271.049     157.163
  H      147.659    -278.517     157.663
  H      152.635    -274.733     159.254
  H      152.223    -278.098     157.556
  H      152.313    -275.328     156.183
  H      154.064    -276.164     154.769
  H      155.283    -277.695     156.847
  H      156.089    -275.590     157.859
  H      146.443    -274.872     159.988
  H      147.911    -273.973     160.374
  H      156.282    -275.569     156.088
  P      154.486    -278.537     153.779
  C      152.987    -280.287     152.555
  O      154.139    -280.046     153.359
  O      155.995    -278.639     154.306
  O      154.352    -277.529     152.681
  H      156.619    -278.347     153.611
  H      152.898    -281.336     152.365
  H      153.084    -279.764     151.627
  H      152.114    -279.942     153.069

 6  7  8  9  10  11  12  13  14  15  25  28  32  33  34  35 0
 6-311+G(2d,p)
 ****
 36  39  40 0
 6-311+G(2d,p)
 ****
 1  2  3  4  5  16  17  18  19  20  21  22  23  24 0
 3-21G
 ****
 26  27  29  30  31  37  38  41  42  43  44  45  46  47 0
 3-21G
 ****
 48 0
 3-21G
 ****


