%nproc=1
%NoSave
%Mem=1900MB
#P OB98/GEN NMR

erre ene a

0 1
  C      270.321     297.496     163.680
  O      271.704     297.332     163.924
  P      272.144     296.806     165.379
  C      274.100     295.259     164.613
  O      273.708     296.447     165.296
  C      275.576     294.952     164.897
  O      276.414     295.820     164.102
  C      276.003     295.173     166.340
  O      275.546     294.119     167.176
  C      277.521     295.245     166.173
  O      278.069     293.920     166.034
  C      277.656     296.012     164.837
  N      281.074     299.823     164.483
  C      281.173     298.488     164.255
  N      280.227     297.540     164.396
  C      279.069     298.076     164.805
  C      278.820     299.401     165.103
  C      279.888     300.306     164.927
  N      279.769     301.665     165.167
  N      277.525     299.579     165.527
  C      276.983     298.374     165.477
  N      277.879     297.441     165.039
  O      271.440     295.372     165.472
  O      271.755     297.699     166.508
  H      277.630     293.362     166.718
  H      271.160     295.182     166.391
  H      282.159     298.144     163.907
  H      275.954     298.136     165.742
  H      278.474     295.636     164.222
  H      278.025     295.727     167.011
  H      275.619     296.126     166.716
  H      275.765     293.912     164.592
  H      273.965     295.389     163.546
  H      280.628     302.203     165.157
  H      278.940     301.995     165.633
  H      273.454     294.431     164.937
  P      274.228     294.392     168.043
  C      273.878     291.848     168.230
  O      274.079     293.060     168.949
  O      273.069     294.205     166.958
  O      274.220     295.683     168.795
  H      273.184     293.392     166.438
  H      273.854     291.023     168.948
  H      274.700     291.683     167.528
  H      272.933     291.882     167.685
  H      270.175     297.848     162.680
  H      269.919     298.207     164.371
  H      269.823     296.557     163.804

 3  4  5  6  7  8  9  10  11  12  22  25  29  30  31  32 0
 6-311+G(2d,p)
 ****
 33  36  37 0
 6-311+G(2d,p)
 ****
 1  2  13  14  15  16  17  18  19  20  21  23  24  26 0
 3-21G
 ****
 27  28  34  35  38  39  40  41  42  43  44  45  46  47  48 0
 3-21G
 ****


