%nproc=1
%NoSave
%Mem=1900MB
#P OB98/GEN NMR

erre ene a

0 1
  C     -166.682     303.917      35.488
  O     -165.298     303.633      35.393
  H     -167.032     304.282      34.517
  H     -166.857     304.695      36.239
  H     -167.236     303.011      35.748
  P     -164.595     303.062      36.719
  C     -162.892     305.008      36.832
  O     -163.999     304.364      37.444
  C     -161.843     305.379      37.879
  O     -160.729     306.059      37.267
  C     -162.350     306.319      38.972
  O     -163.066     305.602      39.963
  C     -161.036     306.863      39.509
  O     -160.440     305.906      40.404
  C     -160.178     306.991      38.232
  N     -157.174     310.706      36.351
  C     -156.879     309.567      37.021
  N     -157.733     308.651      37.529
  C     -159.007     309.001      37.289
  C     -159.454     310.125      36.619
  C     -158.469     311.008      36.129
  N     -158.768     312.162      35.439
  N     -160.833     310.155      36.570
  C     -161.209     309.035      37.146
  N     -160.142     308.314      37.634
  O     -163.651     301.926      36.511
  O     -165.874     302.723      37.621
  H     -159.729     306.359      40.891
  H     -166.563     303.404      37.508
  H     -155.823     309.365      37.167
  H     -162.234     308.685      37.233
  H     -159.134     306.707      38.413
  H     -161.168     307.788      40.081
  H     -162.935     307.141      38.552
  H     -161.461     304.447      38.316
  H     -163.220     305.907      36.300
  H     -158.023     312.814      35.274
  H     -159.740     312.444      35.382
  H     -162.467     304.310      36.105
  P     -164.049     306.360      40.980
  C     -162.620     305.399      42.896
  O     -163.226     306.568      42.341
  O     -165.389     305.733      41.152
  O     -164.154     307.846      40.393
  H     -165.063     308.184      40.497
  H     -162.102     305.659      43.796
  H     -161.927     304.988      42.192
  H     -163.377     304.675      43.116

 6  7  8  9  10  11  12  13  14  15  25  28  32  33  34  35 0
 6-311+G(2d,p)
 ****
 36  39  40 0
 6-311+G(2d,p)
 ****
 1  2  3  4  5  16  17  18  19  20  21  22  23  24 0
 3-21G
 ****
 26  27  29  30  31  37  38  41  42  43  44  45  46  47 0
 3-21G
 ****
 48 0
 3-21G
 ****


