%nproc=1
%NoSave
%Mem=1900MB
#P OB98/GEN NMR

erre ene a

0 1
  C     -115.751     -36.340    -430.661
  O     -117.045     -36.572    -430.140
  H     -115.635     -36.934    -431.574
  H     -114.996     -36.661    -429.942
  H     -115.614     -35.286    -430.911
  P     -117.533     -35.716    -428.876
  C     -116.897     -37.684    -427.332
  O     -117.904     -36.758    -427.710
  C     -117.520     -38.986    -426.818
  O     -118.087     -38.746    -425.505
  C     -118.634     -39.529    -427.717
  O     -118.566     -40.956    -427.737
  C     -119.901     -39.083    -427.016
  O     -121.011     -39.931    -427.311
  C     -119.479     -39.122    -425.549
  N     -124.195     -37.798    -424.315
  C     -123.741     -38.827    -425.112
  N     -124.682     -39.612    -425.682
  N     -122.475     -39.068    -425.335
  C     -121.644     -38.216    -424.681
  C     -121.973     -37.158    -423.863
  C     -123.379     -36.892    -423.643
  O     -123.842     -35.986    -422.958
  N     -120.850     -36.521    -423.402
  C     -119.846     -37.188    -423.940
  N     -120.277     -38.216    -424.736
  O     -118.598     -34.708    -429.170
  O     -116.201     -35.020    -428.328
  H     -121.738     -39.670    -426.705
  H     -116.181     -34.072    -428.561
  H     -125.183     -37.652    -424.184
  H     -118.799     -36.968    -423.792
  H     -119.581     -40.123    -425.109
  H     -120.157     -38.061    -427.328
  H     -125.672     -39.500    -425.535
  H     -118.568     -39.144    -428.736
  H     -124.372     -40.397    -426.248
  H     -116.721     -39.725    -426.692
  H     -116.292     -37.227    -426.539
  H     -116.250     -37.888    -428.194
  P     -117.965     -41.690    -429.030
  C     -120.147     -42.554    -430.069
  O     -118.929     -42.908    -429.434
  O     -116.510     -42.036    -428.955
  O     -118.237     -40.626    -430.203
  H     -117.500     -40.669    -430.846
  H     -120.704     -43.440    -430.291
  H     -119.936     -42.029    -430.977
  H     -120.719     -41.926    -429.418

 6  7  8  9  10  11  12  13  14  15  26  29  33  34 0
 6-311+G(2d,p)
 ****
 36  38  39  40  41 0
 6-311+G(2d,p)
 ****
 1  2  3  4  5  16  17  18  19  20  21  22  23  24  25 0
 3-21G
 ****
 27  28  30  31  32  35  37  42  43  44  45  46  47 0
 3-21G
 ****
 48  49 0
 3-21G
 ****


