%nproc=1
%NoSave
%Mem=1900MB
#P OB98/GEN NMR

erre ene a

0 1
  C      465.740    -595.271     283.097
  O      465.508    -595.871     284.360
  H      466.548    -595.816     282.592
  H      466.049    -594.233     283.229
  H      464.840    -595.323     282.476
  P      464.300    -595.277     285.231
  C      466.122    -593.816     286.361
  O      464.963    -594.621     286.539
  C      466.407    -592.993     287.621
  O      465.471    -591.879     287.676
  C      466.267    -593.778     288.933
  O      467.252    -593.281     289.848
  C      464.892    -593.358     289.437
  O      464.744    -593.558     290.840
  C      464.884    -591.892     288.997
  N      461.543    -589.382     291.800
  C      462.841    -589.756     292.074
  N      463.333    -589.410     293.287
  N      463.611    -590.412     291.240
  C      462.989    -590.665     290.049
  C      461.715    -590.349     289.657
  C      460.881    -589.639     290.604
  O      459.714    -589.308     290.421
  N      461.462    -590.807     288.378
  C      462.596    -591.393     288.011
  N      463.546    -591.330     288.990
  O      463.590    -596.600     285.787
  O      463.345    -594.403     284.487
  H      463.897    -593.135     291.108
  H      462.860    -596.870     285.198
  H      460.991    -588.884     292.484
  H      462.759    -591.868     287.054
  H      465.497    -591.256     289.646
  H      464.110    -593.926     288.920
  H      462.825    -588.859     293.966
  H      466.369    -594.862     288.824
  H      464.303    -589.635     293.491
  H      467.415    -592.553     287.525
  H      465.952    -593.136     285.514
  H      466.973    -594.461     286.134
  P      468.667    -594.034     289.907
  C      468.204    -595.113     292.231
  O      469.046    -594.279     291.448
  O      469.703    -592.882     289.461
  O      468.770    -595.232     289.013
  H      470.483    -593.277     289.042
  H      468.590    -595.175     293.227
  H      468.171    -596.092     291.800
  H      467.217    -594.701     292.256

 6  7  8  9  10  11  12  13  14  15  26  29  33  34 0
 6-311+G(2d,p)
 ****
 36  38  39  40  41 0
 6-311+G(2d,p)
 ****
 1  2  3  4  5  16  17  18  19  20  21  22  23  24  25 0
 3-21G
 ****
 27  28  30  31  32  35  37  42  43  44  45  46  47 0
 3-21G
 ****
 48  49 0
 3-21G
 ****


