%nproc=1
%NoSave
%Mem=1900MB
#P OB98/GEN NMR

erre ene a

0 1
  C      340.924    -283.977    -144.314
  O      340.477    -285.205    -143.758
  P      338.894    -285.480    -143.741
  C      338.668    -284.780    -141.250
  O      338.266    -284.550    -142.592
  C      337.449    -284.995    -140.347
  O      336.809    -283.713    -140.105
  C      336.386    -285.943    -140.927
  O      335.820    -286.654    -139.825
  C      335.385    -284.967    -141.523
  O      334.114    -285.535    -141.793
  C      335.416    -283.868    -140.464
  N      331.174    -281.030    -140.812
  C      331.416    -282.224    -140.218
  N      332.576    -282.913    -140.156
  C      333.557    -282.246    -140.794
  C      333.451    -281.036    -141.463
  C      332.195    -280.420    -141.455
  N      331.949    -279.208    -142.073
  N      334.670    -280.682    -142.015
  C      335.485    -281.664    -141.690
  N      334.867    -282.618    -140.933
  O      338.792    -286.950    -143.118
  O      338.223    -285.387    -145.078
  H      333.446    -284.825    -141.893
  H      338.093    -287.471    -143.554
  H      330.563    -282.680    -139.718
  H      336.525    -281.732    -141.983
  H      334.870    -284.157    -139.556
  H      335.776    -284.593    -142.478
  H      336.790    -286.658    -141.653
  H      337.801    -285.373    -139.377
  H      339.219    -283.908    -140.880
  H      330.976    -278.948    -142.186
  H      332.653    -278.866    -142.715
  H      339.344    -285.640    -141.216
  P      335.359    -288.181    -140.037
  C      332.924    -287.392    -140.270
  O      334.005    -288.050    -140.894
  O      334.790    -288.532    -138.587
  O      336.408    -289.113    -140.544
  H      334.158    -287.860    -138.274
  H      332.109    -287.289    -140.991
  H      333.229    -286.388    -139.940
  H      332.570    -287.973    -139.417
  H      341.992    -283.929    -144.260
  H      340.502    -283.162    -143.764
  H      340.616    -283.915    -145.337

 3  4  5  6  7  8  9  10  11  12  22  25  29  30  31  32 0
 6-311+G(2d,p)
 ****
 33  36  37 0
 6-311+G(2d,p)
 ****
 1  2  13  14  15  16  17  18  19  20  21  23  24  26 0
 3-21G
 ****
 27  28  34  35  38  39  40  41  42  43  44  45  46  47  48 0
 3-21G
 ****


