%nproc=1
%NoSave
%Mem=1900MB
#P OB98/GEN NMR

erre ene a

0 1
  C      137.041    -891.680    -131.197
  O      138.445    -891.710    -131.050
  H      136.653    -890.800    -130.682
  H      136.584    -892.570    -130.755
  H      136.772    -891.610    -132.256
  P      139.244    -892.980    -131.620
  C      139.420    -892.010    -134.011
  O      138.867    -893.020    -133.180
  C      139.977    -892.630    -135.291
  O      141.237    -893.290    -135.043
  C      139.097    -893.700    -135.924
  O      137.952    -893.180    -136.581
  C      140.090    -894.330    -136.888
  O      140.256    -893.470    -138.031
  C      141.372    -894.350    -136.021
  N      141.586    -895.640    -135.362
  C      142.354    -896.580    -136.056
  O      142.818    -896.320    -137.154
  N      142.552    -897.820    -135.483
  C      142.016    -898.090    -134.342
  N      142.201    -899.350    -133.848
  C      141.208    -897.130    -133.567
  C      141.032    -895.930    -134.138
  O      139.049    -894.270    -130.882
  O      140.772    -892.500    -131.667
  H      141.000    -893.820    -138.546
  H      141.307    -893.260    -132.006
  H      140.776    -897.410    -132.628
  H      140.441    -895.170    -133.636
  H      142.257    -894.130    -136.632
  H      139.771    -895.300    -137.263
  H      138.807    -894.460    -135.182
  H      140.183    -891.810    -135.998
  H      142.725    -900.000    -134.422
  H      140.202    -891.490    -133.450
  H      141.600    -899.720    -133.121
  H      138.643    -891.280    -134.290
  P      136.979    -894.210    -137.331
  C      135.110    -894.050    -135.524
  O      136.040    -894.870    -136.207
  O      137.967    -895.400    -137.737
  O      136.227    -893.660    -138.501
  H      138.305    -895.280    -138.650
  H      134.568    -894.640    -134.814
  H      134.427    -893.623    -136.228
  H      135.632    -893.268    -135.013

 6  7  8  9  10  11  12  13  14  15  16  26  30  31  32  33  35 0
 6-311+G(2d,p)
 ****
 37  38 0
 6-311+G(2d,p)
 ****
 1  2  3  4  5  17  18  19  20  21  22  23  24  25 0
 3-21G
 ****
 27  28  29  34  36  39  40  41  42  43  44  45  46 0
 3-21G
 ****


