%nproc=1
%NoSave
%Mem=1900MB
#P OB98/GEN NMR

erre ene a

0 1
  C      -60.773     -42.695      69.869
  O      -61.620     -42.743      68.742
  P      -62.695     -41.592      68.458
  C      -64.345     -42.820      70.010
  O      -64.144     -42.236      68.728
  C      -65.829     -43.142      70.220
  O      -65.997     -43.721      71.552
  C      -66.732     -41.896      70.129
  O      -67.825     -42.024      69.220
  C      -67.114     -41.652      71.580
  O      -68.285     -40.874      71.743
  C      -67.146     -43.079      72.137
  N      -67.120     -43.111      73.597
  C      -67.381     -44.332      74.209
  O      -67.620     -45.375      73.606
  N      -67.425     -44.320      75.576
  C      -67.352     -43.216      76.369
  O      -67.499     -43.265      77.582
  C      -67.115     -41.947      75.663
  C      -66.988     -41.951      74.334
  O      -62.564     -40.906      67.141
  O      -62.526     -40.619      69.719
  H      -68.368     -40.653      72.690
  H      -62.689     -41.036      70.583
  H      -67.615     -45.199      76.032
  H      -67.062     -41.052      76.267
  H      -66.812     -41.032      73.787
  H      -68.030     -43.620      71.796
  H      -66.294     -41.096      72.052
  H      -66.172     -41.032      69.750
  H      -66.116     -43.893      69.478
  H      -64.022     -42.110      70.775
  H      -63.726     -43.717      70.111
  P      -68.100     -41.060      67.972
  C      -69.772     -39.570      69.294
  O      -69.540     -40.391      68.167
  O      -67.864     -41.672      66.632
  O      -67.096     -39.837      68.218
  H      -66.840     -39.448      67.361
  H      -70.833     -39.621      69.550
  H      -69.523     -38.537      69.044
  H      -69.182     -39.893      70.155
  H      -60.135     -43.554      69.872
  H      -61.365     -42.688      70.760
  H      -60.177     -41.807      69.830

 3  4  5  6  7  8  9  10  11  12  13  23  28  29  30  31  32 0
 6-311+G(2d,p)
 ****
 33  34 0
 6-311+G(2d,p)
 ****
 1  2  14  15  16  17  18  19  20  21  22  24  25  26  27 0
 3-21G
 ****
 35  36  37  38  39  40  41  42  43  44  45 0
 3-21G
 ****


