%nproc=1
%NoSave
%Mem=1900MB
#P OB98/GEN NMR

erre ene a

0 1
  C       38.348    -132.151      -3.485
  O       39.381    -132.238      -2.524
  H       37.442    -131.786      -2.994
  H       38.146    -133.136      -3.913
  H       38.628    -131.449      -4.276
  P       40.787    -132.815      -3.042
  C       41.576    -135.150      -3.852
  O       40.628    -134.413      -3.090
  C       41.434    -136.644      -3.579
  O       40.059    -137.061      -3.713
  C       42.257    -137.533      -4.506
  O       43.594    -137.645      -4.049
  C       41.490    -138.846      -4.412
  O       41.837    -139.563      -3.208
  C       40.034    -138.363      -4.356
  N       36.147    -140.020      -7.128
  C       36.567    -140.393      -5.866
  N       35.864    -141.376      -5.261
  N       37.591    -139.862      -5.253
  C       38.239    -138.934      -6.001
  C       37.923    -138.480      -7.261
  C       36.752    -139.036      -7.902
  O       36.283    -138.689      -8.984
  N       38.806    -137.515      -7.675
  C       39.671    -137.414      -6.681
  N       39.372    -138.261      -5.644
  O       41.769    -132.582      -1.797
  O       41.325    -132.178      -4.278
  H       42.778    -139.807      -3.243
  H       42.649    -132.326      -2.136
  H       35.333    -140.439      -7.538
  H       40.521    -136.744      -6.664
  H       39.412    -139.019      -3.739
  H       41.728    -139.512      -5.244
  H       35.270    -142.008      -5.778
  H       42.220    -137.164      -5.539
  H       36.217    -141.699      -4.366
  H       41.720    -136.815      -2.530
  H       42.582    -134.822      -3.575
  H       41.413    -134.950      -4.916
  P       44.514    -138.795      -4.677
  C       45.089    -141.221      -3.941
  O       44.115    -140.187      -3.982
  O       45.959    -138.472      -4.064
  O       44.560    -138.814      -6.168
  H       46.526    -138.073      -4.751
  H       44.678    -142.079      -3.451
  H       45.949    -140.880      -3.402
  H       45.374    -141.482      -4.939

 6  7  8  9  10  11  12  13  14  15  26  29  33  34 0
 6-311+G(2d,p)
 ****
 36  38  39  40  41 0
 6-311+G(2d,p)
 ****
 1  2  3  4  5  16  17  18  19  20  21  22  23  24  25 0
 3-21G
 ****
 27  28  30  31  32  35  37  42  43  44  45  46  47 0
 3-21G
 ****
 48  49 0
 3-21G
 ****


