%nproc=1
%NoSave
%Mem=1900MB
#P OB98/GEN NMR

erre ene a

0 1
  C      -38.899      72.275     -78.023
  O      -40.286      72.133     -78.256
  H      -38.439      71.284     -78.034
  H      -38.717      72.733     -77.047
  H      -38.441      72.881     -78.809
  P      -41.206      73.442     -78.211
  C      -43.199      74.207     -76.749
  O      -42.087      73.328     -76.877
  C      -44.328      73.535     -75.970
  O      -44.875      72.437     -76.728
  C      -43.897      72.944     -74.634
  O      -43.709      73.963     -73.675
  C      -45.053      71.996     -74.362
  O      -46.198      72.708     -73.869
  C      -45.326      71.439     -75.782
  N      -44.682      70.154     -76.037
  C      -45.401      69.018     -75.647
  O      -46.501      69.134     -75.109
  N      -44.838      67.784     -75.863
  C      -43.689      67.687     -76.453
  N      -43.190      66.436     -76.640
  C      -42.916      68.859     -76.909
  C      -43.460      70.048     -76.662
  O      -41.995      73.739     -79.449
  O      -40.181      74.622     -77.867
  H      -46.511      73.264     -74.610
  H      -39.868      75.051     -78.685
  H      -41.965      68.730     -77.407
  H      -42.956      70.960     -76.966
  H      -46.405      71.316     -75.943
  H      -44.803      71.239     -73.619
  H      -42.985      72.349     -74.758
  H      -45.130      74.273     -75.834
  H      -43.767      65.662     -76.328
  H      -43.534      74.451     -77.763
  H      -42.393      66.234     -77.226
  H      -42.901      75.137     -76.253
  P      -42.865      73.712     -72.335
  C      -43.275      74.263     -69.857
  O      -43.871      74.020     -71.122
  O      -41.558      74.425     -72.264
  O      -42.726      72.119     -72.271
  H      -42.032      71.809     -72.906
  H      -44.040      74.455     -69.133
  H      -42.627      75.112     -69.925
  H      -42.709      73.406     -69.559

 6  7  8  9  10  11  12  13  14  15  16  26  30  31  32  33  35 0
 6-311+G(2d,p)
 ****
 37  38 0
 6-311+G(2d,p)
 ****
 1  2  3  4  5  17  18  19  20  21  22  23  24  25 0
 3-21G
 ****
 27  28  29  34  36  39  40  41  42  43  44  45  46 0
 3-21G
 ****


