%nproc=1
%NoSave
%Mem=1900MB
#P OB98/GEN NMR

erre ene a

0 1
  C     -272.596     465.451    1032.854
  O     -271.699     464.639    1033.583
  H     -272.022     466.060    1032.150
  H     -273.130     466.118    1033.535
  H     -273.307     464.844    1032.286
  P     -272.281     463.447    1034.483
  C     -272.960     464.840    1036.540
  O     -273.412     464.106    1035.414
  C     -273.906     464.616    1037.728
  O     -273.847     463.202    1038.097
  C     -273.539     465.442    1038.979
  O     -274.747     465.804    1039.657
  C     -272.759     464.429    1039.793
  O     -272.692     464.782    1041.150
  C     -273.552     463.157    1039.504
  N     -272.801     461.961    1039.876
  C     -272.678     461.685    1041.233
  O     -273.174     462.387    1042.115
  N     -271.919     460.594    1041.558
  C     -271.185     459.846    1040.690
  O     -270.449     458.934    1041.049
  C     -271.295     460.221    1039.267
  C     -272.086     461.237    1038.930
  O     -271.271     462.625    1035.212
  O     -273.155     462.572    1033.460
  H     -272.298     465.671    1041.246
  H     -273.279     461.665    1033.807
  H     -271.838     460.370    1042.540
  H     -270.713     459.655    1038.551
  H     -272.185     461.551    1037.901
  H     -274.509     463.153    1040.049
  H     -271.735     464.346    1039.413
  H     -272.967     466.340    1038.740
  H     -274.938     464.815    1037.401
  H     -272.941     465.903    1036.276
  H     -271.944     464.523    1036.807
  P     -275.477     467.213    1039.405
  C     -274.311     468.414    1041.357
  O     -274.569     468.422    1039.952
  O     -276.896     467.259    1039.874
  O     -275.425     467.398    1037.814
  H     -276.302     467.695    1037.495
  H     -273.702     469.256    1041.613
  H     -273.800     467.511    1041.621
  H     -275.237     468.469    1041.890

 6  7  8  9  10  11  12  13  14  15  16  26  31  32  33  34  35 0
 6-311+G(2d,p)
 ****
 36  37 0
 6-311+G(2d,p)
 ****
 1  2  3  4  5  17  18  19  20  21  22  23  24  25 0
 3-21G
 ****
 27  28  29  30  38  39  40  41  42  43  44  45 0
 3-21G
 ****


