%nproc=1
%NoSave
%Mem=1900MB
#P OB98/GEN NMR

erre ene a

0 1
  C       54.926     581.569       8.559
  O       54.673     582.495       7.497
  P       53.455     583.519       7.680
  C       54.537     585.495       6.390
  O       53.468     584.561       6.460
  C       55.698     584.956       5.542
  O       55.249     584.639       4.194
  C       56.860     585.944       5.399
  O       58.073     585.195       5.259
  C       56.554     586.626       4.078
  O       57.707     587.267       3.534
  C       56.021     585.441       3.275
  N       56.153     587.334      -1.399
  C       57.183     587.068      -0.514
  N       58.434     587.312      -0.956
  N       56.999     586.603       0.695
  C       55.695     586.372       0.984
  C       54.588     586.601       0.199
  C       54.804     587.139      -1.126
  O       53.930     587.405      -1.944
  N       53.431     586.264       0.856
  C       53.840     585.841       2.039
  N       55.205     585.855       2.150
  O       53.920     584.407       8.931
  O       52.143     582.858       7.946
  H       58.344     586.562       3.283
  H       53.384     584.180       9.712
  H       56.350     587.699      -2.314
  H       53.197     585.517       2.843
  H       56.828     584.815       2.870
  H       55.774     587.384       4.221
  H       58.646     587.621      -1.892
  H       56.967     586.652       6.226
  H       59.209     587.088      -0.345
  H       56.057     584.025       5.992
  H       54.901     585.727       7.395
  H       54.155     586.442       5.990
  P       59.294     585.609       6.204
  C       60.636     583.422       6.599
  O       60.495     584.614       5.848
  O       58.827     585.129       7.658
  O       59.638     587.065       6.181
  H       59.274     585.651       8.351
  H       60.271     582.580       6.002
  H       60.084     583.464       7.541
  H       61.695     583.268       6.818
  H       55.761     580.952       8.302
  H       54.062     580.956       8.711
  H       55.143     582.108       9.458

 3  4  5  6  7  8  9  10  11  12  23  26  30  31 0
 6-311+G(2d,p)
 ****
 33  35  36  37  38 0
 6-311+G(2d,p)
 ****
 1  2  13  14  15  16  17  18  19  20  21  22  24  25 0
 3-21G
 ****
 27  28  29  32  34  39  40  41  42  43  44  45  46  47  48  49 0
 3-21G
 ****


