%nproc=1
%NoSave
%Mem=1900MB
#P OB98/GEN NMR

erre ene a

0 1
  C       22.975     269.633     -27.169
  O       23.545     269.447     -25.893
  H       22.774     268.652     -27.608
  H       23.678     270.169     -27.811
  H       22.036     270.189     -27.110
  P       23.531     270.666     -24.858
  C       25.836     271.390     -25.764
  O       24.519     271.801     -25.424
  C       26.887     272.027     -24.853
  O       28.214     271.660     -25.288
  C       26.837     273.554     -24.889
  O       25.884     274.151     -24.028
  C       28.257     273.922     -24.470
  O       28.378     273.956     -23.039
  C       29.089     272.777     -25.053
  N       32.661     275.661     -27.297
  C       32.232     275.671     -25.984
  N       32.788     276.610     -25.184
  N       31.333     274.851     -25.513
  C       30.799     274.033     -26.449
  C       31.131     273.940     -27.783
  C       32.169     274.817     -28.283
  O       32.579     274.853     -29.440
  N       30.375     272.988     -28.425
  C       29.539     272.562     -27.500
  N       29.775     273.148     -26.278
  O       24.346     270.100     -23.596
  O       22.172     271.146     -24.450
  H       29.247     274.333     -22.813
  H       24.061     270.558     -22.785
  H       33.377     276.298     -27.599
  H       28.765     271.817     -27.655
  H       29.857     272.438     -24.345
  H       28.543     274.914     -24.834
  H       33.396     277.336     -25.529
  H       26.678     273.906     -25.914
  H       32.317     276.824     -24.303
  H       26.762     271.642     -23.834
  H       26.005     271.697     -26.799
  H       25.913     270.299     -25.734
  P       25.665     275.737     -24.052
  C       25.685     275.838     -21.450
  O       26.229     276.309     -22.664
  O       24.076     275.877     -23.904
  O       26.171     276.424     -25.273
  H       23.665     275.988     -24.782
  H       26.173     276.321     -20.629
  H       25.832     274.780     -21.380
  H       24.638     276.056     -21.420

 6  7  8  9  10  11  12  13  14  15  26  29  33  34 0
 6-311+G(2d,p)
 ****
 36  38  39  40  41 0
 6-311+G(2d,p)
 ****
 1  2  3  4  5  16  17  18  19  20  21  22  23  24  25 0
 3-21G
 ****
 27  28  30  31  32  35  37  42  43  44  45  46  47 0
 3-21G
 ****
 48  49 0
 3-21G
 ****


