%nproc=1
%NoSave
%Mem=1900MB
#P OB98/GEN NMR

erre ene a

0 1
  C     -221.013     153.671     -94.620
  O     -221.572     154.617     -95.516
  P     -221.257     156.169     -95.257
  C     -223.570     156.635     -94.094
  O     -222.155     156.593     -93.998
  C     -224.063     158.080     -93.975
  O     -223.462     158.709     -92.819
  C     -223.705     158.975     -95.150
  O     -224.546     158.737     -96.270
  C     -223.851     160.357     -94.529
  O     -225.234     160.745     -94.494
  C     -223.329     160.116     -93.097
  N     -221.954     160.567     -92.900
  C     -221.734     161.938     -93.008
  O     -222.628     162.747     -93.251
  N     -220.437     162.347     -92.844
  C     -219.355     161.538     -92.652
  O     -218.208     161.956     -92.556
  C     -219.644     160.098     -92.581
  C     -220.908     159.686     -92.706
  O     -221.983     156.832     -96.519
  O     -219.799     156.459     -95.138
  H     -222.722     156.288     -96.838
  H     -225.249     161.697     -94.276
  H     -220.255     163.341     -92.895
  H     -218.811     159.423     -92.438
  H     -221.139     158.628     -92.664
  H     -223.968     160.633     -92.370
  H     -223.307     161.132     -95.083
  H     -222.658     158.812     -95.438
  H     -225.151     158.062     -93.822
  H     -224.001     156.033     -93.293
  H     -223.877     156.208     -95.055
  P     -223.866     158.882     -97.723
  C     -225.077     161.175     -98.039
  O     -223.871     160.445     -98.068
  O     -225.007     158.263     -98.661
  O     -222.539     158.202     -97.834
  H     -225.900     158.549     -98.407
  H     -224.841     162.237     -97.943
  H     -225.706     160.876     -97.198
  H     -225.620     161.017     -98.975
  H     -221.306     152.685     -94.914
  H     -221.366     153.867     -93.629
  H     -219.946     153.747     -94.641

 3  4  5  6  7  8  9  10  11  12  13  24  28  29  30  31  32 0
 6-311+G(2d,p)
 ****
 33  34 0
 6-311+G(2d,p)
 ****
 1  2  14  15  16  17  18  19  20  21  22  23  25  26  27 0
 3-21G
 ****
 35  36  37  38  39  40  41  42  43  44  45 0
 3-21G
 ****


