%nproc=1
%NoSave
%Mem=1900MB
#P OB98/GEN NMR

erre ene a

0 1
  C     -254.822     199.723      34.902
  O     -254.740     198.338      34.525
  P     -255.055     197.209      35.627
  C     -252.810     197.667      36.873
  O     -254.212     197.479      36.962
  C     -252.071     196.911      37.989
  O     -252.530     197.365      39.295
  C     -252.258     195.385      37.949
  O     -251.043     194.797      38.435
  C     -253.380     195.168      38.953
  O     -253.450     193.834      39.435
  C     -252.995     196.204      40.014
  N     -254.083     196.560      40.928
  C     -254.267     195.776      42.062
  O     -253.616     194.770      42.323
  N     -255.271     196.178      42.910
  C     -256.118     197.231      42.713
  O     -257.020     197.519      43.492
  C     -255.897     198.004      41.481
  C     -254.905     197.640      40.662
  O     -254.310     195.928      35.008
  O     -256.502     196.908      35.836
  H     -252.711     193.716      40.061
  H     -254.897     195.148      35.060
  H     -255.408     195.633      43.741
  H     -256.543     198.854      41.292
  H     -254.718     198.203      39.752
  H     -252.144     195.829      40.597
  H     -254.337     195.406      38.479
  H     -252.490     195.005      36.950
  H     -251.008     197.165      37.921
  H     -252.584     198.738      36.963
  H     -252.465     197.327      35.892
  P     -249.799     194.675      37.427
  C     -249.881     192.138      36.790
  O     -250.121     193.476      36.415
  O     -248.698     194.036      38.408
  O     -249.364     195.969      36.818
  H     -249.051     193.310      38.944
  H     -250.174     191.955      37.826
  H     -248.823     191.906      36.662
  H     -250.468     191.483      36.139
  H     -254.585     200.337      34.058
  H     -254.128     199.919      35.693
  H     -255.814     199.944      35.236

 3  4  5  6  7  8  9  10  11  12  13  23  28  29  30  31  32 0
 6-311+G(2d,p)
 ****
 33  34 0
 6-311+G(2d,p)
 ****
 1  2  14  15  16  17  18  19  20  21  22  24  25  26 0
 3-21G
 ****
 27  35  36  37  38  39  40  41  42  43  44  45 0
 3-21G
 ****


