%nproc=1
%NoSave
%Mem=1900MB
#P OB98/GEN NMR

erre ene a

0 1
  C      221.566     862.553     339.651
  O      222.542     863.570     339.811
  H      220.610     862.930     340.013
  H      221.839     861.667     340.240
  H      221.467     862.282     338.592
  P      224.066     863.241     339.414
  C      224.981     861.600     337.645
  O      224.033     862.620     337.936
  C      225.102     861.383     336.141
  O      223.813     860.901     335.655
  C      225.432     862.693     335.382
  O      226.562     862.568     334.523
  C      224.097     863.081     334.736
  O      224.204     863.865     333.580
  C      223.403     861.727     334.538
  N      221.939     861.806     334.480
  C      221.297     860.994     333.545
  O      221.867     860.179     332.801
  N      219.934     861.109     333.513
  C      219.173     861.951     334.254
  O      217.954     862.013     334.160
  C      219.899     862.804     335.192
  C      221.239     862.707     335.259
  O      224.842     862.443     340.416
  O      224.721     864.684     339.194
  H      224.786     864.636     333.787
  H      225.262     864.929     339.967
  H      219.461     860.512     332.847
  H      219.327     863.495     335.798
  H      221.820     863.329     335.956
  H      223.745     861.246     333.625
  H      223.532     863.668     335.469
  H      225.735     863.480     336.090
  H      225.844     860.609     335.940
  H      224.629     860.678     338.136
  H      225.964     861.868     338.063
  P      227.873     863.478     334.601
  C      229.173     864.425     336.666
  O      228.486     863.346     336.072
  O      227.720     864.864     334.063
  O      228.932     862.707     333.664
  H      229.500     863.389     333.259
  H      229.504     864.142     337.643
  H      228.517     865.267     336.742
  H      230.019     864.684     336.064

 6  7  8  9  10  11  12  13  14  15  16  26  31  32  33  34  35 0
 6-311+G(2d,p)
 ****
 36  37 0
 6-311+G(2d,p)
 ****
 1  2  3  4  5  17  18  19  20  21  22  23  24  25 0
 3-21G
 ****
 27  28  29  30  38  39  40  41  42  43  44  45 0
 3-21G
 ****


