%nproc=1
%NoSave
%Mem=1900MB
#P OB98/GEN NMR

erre ene a

0 1
  C       25.556     183.612    -389.195
  O       26.171     182.602    -389.970
  H       26.253     183.927    -388.414
  H       24.643     183.241    -388.722
  H       25.323     184.477    -389.824
  P       25.261     181.796    -391.018
  C       27.162     181.779    -392.767
  O       26.293     180.993    -391.954
  C       28.617     181.333    -392.604
  O       28.745     179.932    -392.917
  C       29.582     182.040    -393.541
  O       29.777     183.407    -393.246
  C       30.777     181.096    -393.553
  O       31.689     181.323    -392.485
  C       30.095     179.718    -393.374
  N       30.137     178.925    -394.598
  C       31.362     178.343    -394.901
  O       32.373     178.488    -394.213
  N       31.407     177.614    -396.056
  C       30.381     177.458    -396.943
  O       30.497     176.824    -397.985
  C       29.117     178.118    -396.581
  C       29.052     178.811    -395.442
  O       24.265     182.615    -391.781
  O       24.599     180.639    -390.136
  H       31.988     182.252    -392.555
  H       23.822     180.240    -390.595
  H       32.284     177.175    -396.287
  H       28.283     178.018    -397.262
  H       28.130     179.311    -395.155
  H       30.601     179.144    -392.588
  H       31.345     181.182    -394.483
  H       29.158     182.010    -394.552
  H       28.906     181.475    -391.557
  H       27.067     182.820    -392.445
  H       26.854     181.704    -393.815
  P       29.629     184.568    -394.333
  C       29.682     186.511    -392.607
  O       30.300     185.903    -393.735
  O       28.310     184.678    -395.024
  O       30.715     184.109    -395.436
  H       30.368     184.367    -396.311
  H       30.235     187.382    -392.324
  H       29.666     185.818    -391.792
  H       28.680     186.791    -392.857

 6  7  8  9  10  11  12  13  14  15  16  26  31  32  33  34  35 0
 6-311+G(2d,p)
 ****
 36  37 0
 6-311+G(2d,p)
 ****
 1  2  3  4  5  17  18  19  20  21  22  23  24  25 0
 3-21G
 ****
 27  28  29  30  38  39  40  41  42  43  44  45 0
 3-21G
 ****


