%nproc=1
%NoSave
%Mem=1900MB
#P OB98/GEN NMR

erre ene a

0 1
  C      624.296     321.122     721.007
  O      623.411     322.057     720.417
  P      622.114     321.483     719.664
  C      623.111     321.395     717.252
  O      622.641     320.665     718.394
  C      622.371     320.938     715.997
  O      622.691     319.561     715.706
  C      620.856     320.996     716.103
  O      620.382     322.324     715.998
  C      620.454     320.072     714.947
  O      620.570     320.788     713.703
  C      621.548     318.979     715.024
  N      618.514     314.844     714.875
  C      618.713     315.857     714.008
  N      619.519     316.933     714.109
  C      620.170     316.895     715.301
  C      620.065     315.959     716.295
  C      619.194     314.885     716.059
  N      618.989     313.865     716.958
  N      620.866     316.281     717.371
  C      621.471     317.390     717.005
  N      621.099     317.804     715.750
  O      621.446     322.783     719.018
  O      621.164     320.741     720.548
  H      621.529     320.886     713.511
  H      620.477     322.706     719.009
  H      618.144     315.785     713.069
  H      622.186     317.936     717.612
  H      621.885     318.644     714.041
  H      619.442     319.694     715.024
  H      620.519     320.559     717.052
  H      622.726     321.556     715.163
  H      624.187     321.207     717.125
  H      618.235     313.221     716.773
  H      619.373     313.969     717.894
  H      622.960     322.465     717.439
  P      619.053     322.712     716.809
  C      617.475     321.597     715.129
  O      618.004     321.549     716.439
  O      618.506     323.961     715.969
  O      619.271     322.941     718.279
  H      618.480     323.780     715.019
  H      616.825     320.726     714.995
  H      618.276     321.564     714.384
  H      616.880     322.504     714.995
  H      625.108     321.643     721.469
  H      624.676     320.466     720.252
  H      623.772     320.551     721.745

 3  4  5  6  7  8  9  10  11  12  22  25  29  30  31  32 0
 6-311+G(2d,p)
 ****
 33  36  37 0
 6-311+G(2d,p)
 ****
 1  2  13  14  15  16  17  18  19  20  21  23  24  26 0
 3-21G
 ****
 27  28  34  35  38  39  40  41  42  43  44  45  46  47  48 0
 3-21G
 ****


