%nproc=1
%NoSave
%Mem=1900MB
#P OB98/GEN NMR

erre ene a

0 1
  C     -132.610      63.536     -44.593
  O     -131.503      64.046     -45.309
  H     -132.819      62.523     -44.949
  H     -133.492      64.155     -44.768
  H     -132.393      63.491     -43.522
  P     -130.902      65.470     -44.891
  C     -132.041      66.667     -46.869
  O     -131.908      66.584     -45.455
  C     -132.172      68.127     -47.293
  O     -133.371      68.708     -46.731
  C     -131.022      69.013     -46.823
  O     -129.866      68.794     -47.606
  C     -131.654      70.388     -46.968
  O     -131.632      70.826     -48.336
  C     -133.108      70.112     -46.511
  N     -133.344      70.479     -45.113
  C     -134.291      71.475     -44.893
  O     -134.907      72.032     -45.799
  N     -134.476      71.841     -43.586
  C     -133.755      71.384     -42.520
  O     -133.800      71.896     -41.405
  C     -132.822      70.284     -42.803
  C     -132.650      69.898     -44.070
  O     -129.463      65.690     -45.225
  O     -131.151      65.533     -43.308
  H     -130.319      65.323     -42.842
  H     -132.173      71.639     -48.375
  H     -135.126      72.596     -43.419
  H     -132.279      69.849     -41.974
  H     -131.947      69.108     -44.306
  H     -133.818      70.670     -47.136
  H     -131.136      71.148     -46.381
  H     -130.816      68.828     -45.762
  H     -132.263      68.158     -48.387
  H     -132.943      66.120     -47.166
  H     -131.170      66.200     -47.340
  P     -128.405      68.819     -46.951
  C     -128.033      71.267     -47.615
  O     -128.070      70.333     -46.544
  O     -127.341      68.142     -47.748
  O     -128.598      68.101     -45.531
  H     -127.948      67.377     -45.449
  H     -127.802      72.239     -47.232
  H     -128.986      71.291     -48.100
  H     -127.282      70.973     -48.319

 6  7  8  9  10  11  12  13  14  15  16  27  31  32  33  34  35 0
 6-311+G(2d,p)
 ****
 36  37 0
 6-311+G(2d,p)
 ****
 1  2  3  4  5  17  18  19  20  21  22  23  24  25 0
 3-21G
 ****
 26  28  29  30  38  39  40  41  42  43  44  45 0
 3-21G
 ****


