%nproc=1
%NoSave
%Mem=1900MB
#P OB98/GEN NMR

erre ene a

0 1
  C      -92.526     201.492     145.666
  O      -92.751     201.264     147.041
  H      -91.905     202.383     145.558
  H      -93.472     201.661     145.147
  H      -92.001     200.643     145.220
  P      -93.694     200.044     147.477
  C      -91.462     198.846     147.975
  O      -92.782     198.723     147.456
  C      -90.784     197.472     148.028
  O      -91.581     196.620     148.887
  C      -90.688     196.811     146.646
  O      -89.365     196.390     146.323
  C      -91.786     195.754     146.690
  O      -91.570     194.653     145.832
  C      -91.872     195.402     148.177
  N      -93.170     194.867     148.583
  C      -93.351     193.490     148.490
  O      -92.501     192.690     148.108
  N      -94.585     193.029     148.872
  C      -95.629     193.789     149.309
  O      -96.710     193.318     149.639
  C      -95.386     195.239     149.357
  C      -94.188     195.704     148.997
  O      -94.980     199.925     146.731
  O      -93.941     200.284     149.040
  H      -92.305     194.022     145.983
  H      -94.846     200.621     149.179
  H      -94.724     192.032     148.825
  H      -96.197     195.873     149.687
  H      -93.974     196.768     149.022
  H      -91.114     194.664     148.442
  H      -92.727     196.223     146.379
  H      -90.922     197.532     145.853
  H      -89.799     197.583     148.494
  H      -91.534     199.273     148.980
  H      -90.879     199.523     147.340
  P      -88.635     196.649     144.930
  C      -86.278     197.033     146.029
  O      -87.321     197.519     145.196
  O      -89.512     197.083     143.804
  O      -88.031     195.204     144.542
  H      -88.044     195.155     143.565
  H      -85.494     197.759     146.079
  H      -85.894     196.120     145.624
  H      -86.661     196.854     147.012

 6  7  8  9  10  11  12  13  14  15  16  26  31  32  33  34  35 0
 6-311+G(2d,p)
 ****
 36  37 0
 6-311+G(2d,p)
 ****
 1  2  3  4  5  17  18  19  20  21  22  23  24  25 0
 3-21G
 ****
 27  28  29  30  38  39  40  41  42  43  44  45 0
 3-21G
 ****


