%nproc=1
%NoSave
%Mem=1900MB
#P OB98/GEN NMR

erre ene a

0 1
  C     -899.230     706.228     401.180
  O     -897.950     705.893     401.674
  H     -899.430     707.288     401.407
  H     -900.000     705.623     401.684
  H     -899.280     706.082     400.101
  P     -897.400     704.432     401.302
  C     -898.030     703.685     403.745
  O     -897.060     703.727     402.702
  C     -897.340     703.614     405.106
  O     -896.720     702.319     405.267
  C     -896.240     704.680     405.308
  O     -896.250     705.089     406.675
  C     -894.960     703.916     405.006
  O     -893.830     704.511     405.629
  C     -895.330     702.510     405.549
  N     -894.490     701.452     404.992
  C     -893.360     701.068     405.722
  O     -893.090     701.622     406.789
  N     -892.530     700.099     405.204
  C     -892.770     699.608     404.019
  N     -891.910     698.661     403.571
  C     -893.930     700.019     403.206
  C     -894.740     700.918     403.739
  O     -895.960     704.768     400.680
  O     -898.290     703.644     400.394
  H     -893.970     704.557     406.586
  H     -895.460     705.422     401.200
  H     -894.080     699.581     402.227
  H     -895.620     701.260     403.211
  H     -895.210     702.472     406.654
  H     -894.770     703.854     403.939
  H     -896.370     705.543     404.656
  H     -898.110     703.692     405.887
  H     -891.110     698.432     404.147
  H     -898.690     702.816     403.618
  H     -891.960     698.253     402.653
  H     -898.630     704.590     403.661
  P     -897.410     706.083     407.167
  C     -895.630     707.904     407.739
  O     -896.770     707.146     408.208
  O     -898.680     705.434     407.643
  O     -897.710     706.983     405.904
  H     -898.660     707.115     405.823
  H     -895.300     708.567     408.511
  H     -895.910     708.472     406.877
  H     -894.837     707.233     407.482

 6  7  8  9  10  11  12  13  14  15  16  26  30  31  32  33  35 0
 6-311+G(2d,p)
 ****
 37  38 0
 6-311+G(2d,p)
 ****
 1  2  3  4  5  17  18  19  20  21  22  23  24  25 0
 3-21G
 ****
 27  28  29  34  36  39  40  41  42  43  44  45  46 0
 3-21G
 ****


