%nproc=1
%NoSave
%Mem=1900MB
#P OB98/GEN NMR

erre ene a

0 1
  C      -26.033    -543.475     -97.767
  O      -25.824    -542.102     -98.133
  P      -26.646    -541.485     -99.369
  C      -29.199    -540.911     -99.536
  O      -27.983    -540.802     -98.804
  C      -30.350    -540.273     -98.753
  O      -30.518    -540.923     -97.473
  C      -30.143    -538.799     -98.425
  O      -30.377    -537.967     -99.551
  C      -31.156    -538.598     -97.299
  O      -32.473    -538.370     -97.828
  C      -31.091    -539.954     -96.570
  N      -30.342    -539.886     -95.316
  C      -31.076    -539.598     -94.170
  O      -32.281    -539.357     -94.181
  N      -30.364    -539.570     -92.996
  C      -29.009    -539.724     -92.877
  O      -28.428    -539.664     -91.798
  C      -28.279    -539.942     -94.129
  C      -28.963    -540.007     -95.273
  O      -27.225    -542.805    -100.075
  O      -25.851    -540.673    -100.338
  H      -32.692    -539.145     -98.379
  H      -27.354    -542.637    -101.028
  H      -30.881    -539.393     -92.152
  H      -27.201    -540.049     -94.077
  H      -28.438    -540.171     -96.213
  H      -32.104    -540.312     -96.347
  H      -30.911    -537.738     -96.663
  H      -29.129    -538.647     -98.031
  H      -31.277    -540.413     -99.335
  H      -29.423    -541.971     -99.701
  H      -29.076    -540.425    -100.510
  P      -29.167    -537.012    -100.003
  C      -26.612    -537.603     -99.988
  O      -27.933    -538.000    -100.294
  O      -28.812    -536.294     -98.613
  O      -29.535    -536.075    -101.107
  H      -28.944    -536.890     -97.851
  H      -26.579    -536.956     -99.106
  H      -26.193    -537.064    -100.847
  H      -26.010    -538.490     -99.796
  H      -25.412    -543.720     -96.931
  H      -25.784    -544.107     -98.594
  H      -27.060    -543.622     -97.503

 3  4  5  6  7  8  9  10  11  12  13  23  28  29  30  31  32 0
 6-311+G(2d,p)
 ****
 33  34 0
 6-311+G(2d,p)
 ****
 1  2  14  15  16  17  18  19  20  21  22  24  25  26 0
 3-21G
 ****
 27  35  36  37  38  39  40  41  42  43  44  45 0
 3-21G
 ****


