%nproc=1
%NoSave
%Mem=1900MB
#P OB98/GEN NMR

erre ene a

0 1
  C     -944.922    1993.778    1209.789
  O     -945.404    1992.542    1210.287
  H     -945.607    1994.132    1209.020
  H     -943.937    1993.653    1209.358
  H     -944.874    1994.527    1210.591
  P     -944.467    1991.792    1211.368
  C     -945.023    1989.449    1210.386
  O     -945.126    1990.326    1211.482
  C     -945.852    1988.164    1210.643
  O     -945.350    1987.477    1211.811
  C     -947.316    1988.457    1210.951
  O     -948.092    1988.721    1209.778
  C     -947.722    1987.114    1211.579
  O     -947.823    1986.098    1210.524
  C     -946.487    1986.856    1212.462
  N     -946.644    1987.397    1213.845
  C     -946.683    1986.452    1214.884
  O     -946.576    1985.237    1214.647
  N     -946.859    1986.882    1216.164
  C     -946.981    1988.158    1216.381
  N     -947.157    1988.531    1217.679
  C     -946.939    1989.208    1215.350
  C     -946.753    1988.752    1214.097
  O     -944.867    1992.484    1212.751
  O     -942.998    1991.810    1211.065
  H     -948.532    1986.411    1209.939
  H     -944.448    1991.992    1213.505
  H     -947.055    1990.224    1215.569
  H     -946.744    1989.429    1213.263
  H     -946.270    1985.785    1212.531
  H     -948.667    1987.134    1212.104
  H     -947.457    1989.219    1211.702
  H     -945.725    1987.511    1209.784
  H     -947.241    1987.804    1218.383
  H     -943.977    1989.178    1210.230
  H     -947.398    1989.490    1217.982
  H     -945.399    1989.948    1209.479
  P     -948.732    1990.179    1209.659
  C     -951.321    1989.858    1209.868
  O     -950.214    1989.986    1209.018
  O     -947.896    1990.846    1208.471
  O     -948.718    1991.024    1210.914
  H     -947.778    1991.817    1208.620
  H     -952.209    1989.740    1209.282
  H     -951.408    1990.735    1210.475
  H     -951.191    1989.001    1210.496

 6  7  8  9  10  11  12  13  14  15  16  26  30  31  32  33  35 0
 6-311+G(2d,p)
 ****
 37  38 0
 6-311+G(2d,p)
 ****
 1  2  3  4  5  17  18  19  20  21  22  23  24  25 0
 3-21G
 ****
 27  28  29  34  36  39  40  41  42  43  44  45  46 0
 3-21G
 ****


