%nproc=1
%NoSave
%Mem=1900MB
#P OB98/GEN NMR

erre ene a

0 1
  C     -110.223    -190.962    -473.963
  O     -110.408    -192.210    -473.284
  P     -109.151    -192.761    -472.444
  C     -107.814    -193.537    -474.534
  O     -107.853    -192.690    -473.387
  C     -106.415    -194.121    -474.767
  O     -105.473    -193.034    -474.961
  C     -105.882    -194.984    -473.621
  O     -105.128    -196.072    -474.178
  C     -104.896    -194.064    -472.921
  O     -103.919    -194.784    -472.174
  C     -104.341    -193.289    -474.118
  N     -100.548    -191.178    -471.514
  C     -100.814    -192.516    -471.763
  N      -99.955    -193.408    -471.227
  N     -101.827    -192.928    -472.483
  C     -102.579    -191.921    -472.983
  C     -102.412    -190.562    -472.811
  C     -101.312    -190.119    -471.982
  O     -101.053    -188.949    -471.680
  N     -103.383    -189.854    -473.482
  C     -104.135    -190.780    -474.041
  N     -103.693    -192.049    -473.763
  O     -109.459    -194.325    -472.310
  O     -108.998    -192.113    -471.103
  H     -104.391    -195.252    -471.456
  H     -109.466    -194.583    -471.368
  H      -99.765    -190.914    -470.935
  H     -105.020    -190.589    -474.637
  H     -103.622    -193.898    -474.688
  H     -105.438    -193.403    -472.230
  H      -99.120    -193.155    -470.722
  H     -106.647    -195.367    -472.946
  H     -100.106    -194.391    -471.434
  H     -106.440    -194.700    -475.698
  H     -108.118    -192.966    -475.418
  H     -108.542    -194.345    -474.393
  P     -105.980    -197.280    -474.814
  C     -104.878    -198.701    -472.926
  O     -106.048    -198.409    -473.673
  O     -104.982    -197.893    -475.907
  O     -107.286    -196.859    -475.406
  H     -105.491    -198.322    -476.622
  H     -104.088    -197.957    -473.087
  H     -104.504    -199.680    -473.226
  H     -105.139    -198.718    -471.865
  H     -111.122    -190.702    -474.483
  H     -109.419    -191.053    -474.664
  H     -109.990    -190.199    -473.250

 3  4  5  6  7  8  9  10  11  12  23  26  30  31  33  0
 6-311+G(2d,p)
 ****
 35  36  37  38 0
 6-311+G(2d,p)
 ****
 1  2  13  14  15  16  17  18  19  20  21  22  24  25  27  28  29 0
 3-21G
 ****
 32  34  39  40  41  42  43  44  45  46  47  48  49 0
 3-21G
 ****


