%nproc=1
%NoSave
%Mem=1900MB
#P OB98/GEN NMR

erre ene a

0 1
  C       11.176     -63.460     -48.956
  O       12.448     -63.081     -48.484
  P       13.509     -62.261     -49.349
  C       14.253     -62.215     -51.858
  O       13.588     -62.914     -50.812
  C       13.741     -62.661     -53.236
  O       12.299     -62.499     -53.266
  C       14.315     -61.788     -54.364
  O       14.703     -62.516     -55.522
  C       13.245     -60.714     -54.540
  O       13.304     -60.053     -55.794
  C       11.968     -61.502     -54.257
  N        7.713     -58.990     -55.464
  C        8.443     -59.882     -56.227
  N        8.096     -59.975     -57.529
  N        9.443     -60.588     -55.757
  C        9.747     -60.305     -54.467
  C        9.094     -59.444     -53.614
  C        7.974     -58.696     -54.135
  O        7.370     -57.810     -53.529
  N        9.724     -59.359     -52.397
  C       10.777     -60.143     -52.524
  N       10.851     -60.713     -53.776
  O       14.790     -61.897     -48.672
  O       12.702     -60.890     -49.640
  H       12.988     -60.680     -56.473
  H       13.361     -60.167     -49.659
  H        7.006     -58.414     -55.906
  H       11.528     -60.310     -51.760
  H       11.611     -62.019     -55.148
  H       13.415     -59.953     -53.769
  H        7.432     -59.338     -57.949
  H       15.248     -61.310     -54.043
  H        8.763     -60.422     -58.154
  H       13.963     -63.725     -53.373
  H       15.319     -62.451     -51.758
  H       14.135     -61.135     -51.734
  P       16.028     -62.366     -56.402
  C       16.966     -60.789     -58.197
  O       15.848     -61.122     -57.395
  O       16.012     -63.619     -57.396
  O       17.300     -62.350     -55.616
  H       16.918     -63.971     -57.498
  H       16.817     -59.786     -58.610
  H       17.052     -61.503     -59.022
  H       17.886     -60.798     -57.606
  H       10.657     -63.998     -48.190
  H       11.287     -64.084     -49.818
  H       10.618     -62.586     -49.218

 3  4  5  6  7  8  9  10  11  12  23  26  30  31 0
 6-311+G(2d,p)
 ****
 33  35  36  37  38 0
 6-311+G(2d,p)
 ****
 1  2  13  14  15  16  17  18  19  20  21  22  24  25 0
 3-21G
 ****
 27  28  29  32  34  39  40  41  42  43  44  45  46  47  48  49 0
 3-21G
 ****


