%nproc=1
%NoSave
%Mem=1900MB
#P OB98/GEN NMR

erre ene a

0 1
  C       37.508    -293.587    -209.304
  O       37.713    -293.151    -210.649
  P       37.466    -291.610    -211.014
  C       34.978    -291.603    -211.652
  O       36.313    -291.518    -212.128
  C       34.042    -292.301    -212.652
  O       33.706    -291.404    -213.752
  C       34.620    -293.580    -213.272
  O       33.526    -294.487    -213.450
  C       35.132    -293.090    -214.615
  O       35.335    -294.147    -215.537
  C       34.036    -292.085    -214.977
  N       34.455    -291.152    -216.014
  C       34.274    -291.550    -217.341
  O       33.873    -292.688    -217.595
  N       34.579    -290.659    -218.341
  C       35.156    -289.533    -218.041
  N       35.424    -288.669    -219.057
  C       35.526    -289.160    -216.662
  C       35.128    -289.996    -215.708
  O       38.697    -290.816    -211.315
  O       36.730    -291.048    -209.702
  H       34.482    -294.613    -215.682
  H       37.008    -290.120    -209.556
  H       36.082    -288.253    -216.471
  H       35.343    -289.809    -214.666
  H       33.131    -292.603    -215.319
  H       36.095    -292.577    -214.474
  H       35.383    -294.056    -212.652
  H       33.106    -292.535    -212.128
  H       35.189    -288.948    -220.001
  H       34.601    -290.597    -211.450
  H       35.828    -287.753    -218.899
  H       34.974    -292.124    -210.687
  P       33.438    -295.788    -212.515
  C       32.806    -297.813    -214.020
  O       32.362    -296.786    -213.161
  O       32.637    -295.220    -211.239
  O       34.738    -296.377    -212.081
  H       32.856    -295.770    -210.462
  H       32.004    -298.544    -214.135
  H       33.685    -298.319    -213.615
  H       33.045    -297.394    -215.004
  H       37.715    -294.634    -209.233
  H       36.493    -293.404    -209.021
  H       38.163    -293.049    -208.651

 3  4  5  6  7  8  9  10  11  12  13  23  27  28  29  30  32 0
 6-311+G(2d,p)
 ****
 34  35 0
 6-311+G(2d,p)
 ****
 1  2  14  15  16  17  18  19  20  21  22  24  25  26 0
 3-21G
 ****
 31  33  36  37  38  39  40  41  42  43  44  45  46 0
 3-21G
 ****


