%nproc=1
%NoSave
%Mem=1900MB
#P OB98/GEN NMR

erre ene a

0 1
  C      665.547     313.545     390.962
  O      666.060     312.235     390.810
  H      665.257     313.921     389.978
  H      666.318     314.206     391.372
  H      664.670     313.546     391.611
  P      666.472     311.410     392.124
  C      668.878     310.590     391.743
  O      667.499     310.271     391.645
  C      669.712     309.647     390.880
  O      669.648     308.311     391.447
  C      669.233     309.559     389.426
  O      670.380     309.453     388.580
  C      668.448     308.264     389.388
  O      668.421     307.685     388.085
  C      669.195     307.415     390.416
  N      666.104     303.587     389.267
  C      666.876     304.384     388.447
  N      666.797     304.147     387.119
  N      667.657     305.335     388.890
  C      667.648     305.453     390.236
  C      666.928     304.723     391.156
  C      666.056     303.686     390.654
  O      665.340     302.958     391.332
  N      667.166     305.161     392.441
  C      668.031     306.152     392.291
  N      668.344     306.377     390.976
  O      665.332     310.907     392.950
  O      667.399     312.424     392.941
  H      669.333     307.387     387.882
  H      666.895     312.843     393.664
  H      665.511     302.875     388.871
  H      668.450     306.742     393.097
  H      670.069     306.906     389.988
  H      667.414     308.447     389.702
  H      666.234     303.422     386.707
  H      668.630     310.418     389.122
  H      667.373     304.709     386.499
  H      670.761     309.960     390.932
  H      669.180     310.490     392.795
  H      669.036     311.627     391.429
  P      671.450     310.648     388.572
  C      672.088     311.166     386.129
  O      672.423     310.442     387.313
  O      672.137     310.904     389.875
  O      670.567     311.912     388.125
  H      670.946     312.718     388.527
  H      672.804     310.949     385.364
  H      672.096     312.215     386.338
  H      671.113     310.876     385.797

 6  7  8  9  10  11  12  13  14  15  26  29  33  34 0
 6-311+G(2d,p)
 ****
 36  38  39  40  41 0
 6-311+G(2d,p)
 ****
 1  2  3  4  5  16  17  18  19  20  21  22  23  24  25 0
 3-21G
 ****
 27  28  30  31  32  35  37  42  43  44  45  46  47 0
 3-21G
 ****
 48  49 0
 3-21G
 ****


