%nproc=1
%NoSave
%Mem=1900MB
#P OB98/GEN NMR

erre ene a

0 1
  C     -217.277     405.819    -497.159
  O     -218.668     406.045    -497.006
  P     -219.233     407.488    -497.457
  C     -218.433     409.930    -497.076
  O     -218.411     408.585    -496.629
  C     -217.255     410.718    -496.488
  O     -216.053     410.406    -497.204
  C     -217.405     412.223    -496.551
  O     -218.305     412.700    -495.556
  C     -215.945     412.645    -496.335
  O     -215.611     412.579    -494.949
  C     -215.188     411.569    -497.132
  N     -212.242     414.746    -499.873
  C     -212.396     414.567    -498.548
  N     -213.219     413.727    -497.886
  C     -213.926     412.996    -498.754
  C     -213.905     413.065    -500.142
  C     -213.013     413.989    -500.703
  N     -212.858     414.154    -502.076
  N     -214.789     412.169    -500.695
  C     -215.338     411.565    -499.667
  N     -214.847     412.003    -498.468
  O     -220.683     407.529    -496.791
  O     -219.283     407.702    -498.943
  H     -214.670     412.855    -494.860
  H     -221.316     408.022    -497.349
  H     -211.763     415.207    -497.913
  H     -216.091     410.780    -499.730
  H     -214.264     411.262    -496.632
  H     -215.752     413.670    -496.672
  H     -217.749     412.548    -497.542
  H     -217.130     410.388    -495.436
  H     -219.370     410.409    -496.764
  H     -212.314     414.933    -502.392
  H     -213.522     413.696    -502.674
  H     -218.400     409.948    -498.184
  P     -218.831     414.209    -495.703
  C     -217.638     416.491    -495.760
  O     -217.507     415.095    -495.536
  O     -219.598     414.427    -494.309
  O     -219.652     414.464    -496.937
  H     -219.039     414.148    -493.551
  H     -216.686     416.975    -495.571
  H     -218.404     416.913    -495.091
  H     -217.930     416.676    -496.801
  H     -217.037     404.831    -496.825
  H     -216.733     406.534    -496.577
  H     -217.010     405.921    -498.190

 3  4  5  6  7  8  9  10  11  12  22  25  29  30  31  32 0
 6-311+G(2d,p)
 ****
 33  36  37 0
 6-311+G(2d,p)
 ****
 1  2  13  14  15  16  17  18  19  20  21  23  24  26 0
 3-21G
 ****
 27  28  34  35  38  39  40  41  42  43  44  45  46  47  48 0
 3-21G
 ****


