%nproc=1
%NoSave
%Mem=1900MB
#P OB98/GEN NMR

erre ene a

0 1
  C       36.117     -38.311     184.752
  O       37.004     -37.531     185.529
  H       35.145     -37.813     184.729
  H       35.991     -39.306     185.190
  H       36.488     -38.401     183.727
  P       38.476     -38.109     185.814
  C       37.448     -38.855     188.073
  O       38.545     -38.235     187.417
  C       37.448     -38.490     189.557
  O       36.293     -39.041     190.226
  C       38.642     -39.016     190.349
  O       39.846     -38.307     190.093
  C       38.132     -38.805     191.768
  O       38.221     -37.411     192.108
  C       36.652     -39.245     191.622
  N       36.432     -40.639     192.008
  C       36.446     -40.919     193.380
  O       36.635     -40.021     194.200
  N       36.282     -42.219     193.794
  C       36.135     -43.163     192.913
  N       36.024     -44.440     193.373
  C       36.096     -42.911     191.457
  C       36.258     -41.644     191.080
  O       39.611     -37.369     185.182
  O       38.393     -39.646     185.374
  H       37.923     -37.322     193.030
  H       39.285     -40.046     185.521
  H       35.983     -43.734     190.766
  H       36.256     -41.381     190.025
  H       35.997     -38.606     192.221
  H       38.700     -39.363     192.516
  H       38.778     -40.090     190.182
  H       37.366     -37.396     189.627
  H       36.096     -44.579     194.372
  H       37.537     -39.938     187.936
  H       36.187     -45.236     192.765
  H       36.505     -38.515     187.636
  P       41.234     -39.082     190.313
  C       41.892     -37.429     192.220
  O       42.245     -38.032     190.987
  O       41.793     -39.243     188.825
  O       41.141     -40.387     191.041
  H       41.538     -40.108     188.445
  H       42.670     -36.761     192.526
  H       41.760     -38.187     192.963
  H       40.979     -36.883     192.102

 6  7  8  9  10  11  12  13  14  15  16  26  30  31  32  33  35 0
 6-311+G(2d,p)
 ****
 37  38 0
 6-311+G(2d,p)
 ****
 1  2  3  4  5  17  18  19  20  21  22  23  24  25 0
 3-21G
 ****
 27  28  29  34  36  39  40  41  42  43  44  45  46 0
 3-21G
 ****


