%nproc=1
%NoSave
%Mem=1900MB
#P OB98/GEN NMR

erre ene a

0 1
  C     -141.227    -120.747    -264.255
  O     -141.972    -120.523    -263.076
  H     -141.272    -119.850    -264.876
  H     -141.656    -121.582    -264.814
  H     -140.180    -120.959    -264.016
  P     -141.853    -121.618    -261.912
  C     -139.434    -121.195    -261.057
  O     -140.826    -121.023    -260.829
  C     -138.689    -121.223    -259.722
  O     -137.354    -121.763    -259.949
  C     -138.521    -119.844    -259.070
  O     -138.616    -119.999    -257.651
  C     -137.096    -119.466    -259.433
  O     -136.512    -118.512    -258.556
  C     -136.410    -120.834    -259.379
  N     -135.144    -120.857    -260.108
  C     -134.034    -120.303    -259.481
  O     -134.020    -119.872    -258.329
  N     -132.890    -120.252    -260.240
  C     -132.761    -120.669    -261.531
  O     -131.714    -120.579    -262.161
  C     -133.970    -121.239    -262.141
  C     -135.089    -121.303    -261.415
  O     -141.020    -122.794    -262.607
  O     -143.148    -122.094    -261.342
  H     -141.621    -123.427    -263.042
  H     -137.031    -117.687    -258.635
  H     -132.078    -119.851    -259.799
  H     -133.908    -121.568    -263.170
  H     -136.005    -121.697    -261.843
  H     -136.242    -121.135    -258.340
  H     -137.067    -119.054    -260.449
  H     -139.243    -119.096    -259.411
  H     -139.203    -121.916    -259.046
  H     -139.059    -120.361    -261.655
  H     -139.271    -122.128    -261.605
  P     -140.044    -119.718    -256.973
  C     -141.162    -122.087    -256.886
  O     -140.434    -121.074    -256.210
  O     -140.997    -119.698    -258.258
  O     -140.067    -118.477    -256.149
  H     -140.720    -120.329    -258.947
  H     -141.328    -122.910    -256.222
  H     -140.604    -122.421    -257.735
  H     -142.103    -121.694    -257.210

 6  7  8  9  10  11  12  13  14  15  16  27  31  32  33  34  35 0
 6-311+G(2d,p)
 ****
 36  37 0
 6-311+G(2d,p)
 ****
 1  2  3  4  5  17  18  19  20  21  22  23  24  25 0
 3-21G
 ****
 26  28  29  30  38  39  40  41  42  43  44  45 0
 3-21G
 ****


