%nproc=1
%NoSave
%Mem=1900MB
#P OB98/GEN NMR

erre ene a

0 1
  C      137.338      81.852    -115.552
  O      137.579      80.631    -114.882
  H      137.765      82.666    -114.962
  H      136.265      82.028    -115.669
  H      137.822      81.843    -116.535
  P      136.830      79.314    -115.416
  C      138.985      78.051    -116.077
  O      137.799      78.695    -116.540
  C      140.212      78.943    -116.291
  O      140.095      80.145    -115.503
  C      141.519      78.303    -115.848
  O      141.936      77.224    -116.658
  C      142.432      79.510    -115.675
  O      143.070      79.917    -116.881
  C      141.432      80.601    -115.218
  N      141.604      80.945    -113.809
  C      142.701      81.742    -113.508
  O      143.509      82.136    -114.353
  N      142.872      82.052    -112.188
  C      142.097      81.602    -111.157
  O      142.326      81.881    -109.983
  C      140.965      80.740    -111.533
  C      140.772      80.453    -112.824
  O      135.416      79.512    -115.877
  O      136.972      78.278    -114.205
  H      143.903      79.410    -116.950
  H      136.333      77.532    -114.299
  H      143.656      82.638    -111.951
  H      140.329      80.365    -110.742
  H      139.943      79.817    -113.128
  H      141.579      81.518    -115.805
  H      143.222      79.312    -114.946
  H      141.369      77.887    -114.846
  H      140.250      79.231    -117.348
  H      139.107      77.128    -116.653
  H      138.876      77.796    -115.018
  P      142.154      75.741    -116.099
  C      140.566      74.387    -117.648
  O      140.800      74.907    -116.345
  O      142.844      75.615    -114.779
  O      143.138      75.125    -117.220
  H      143.742      74.503    -116.770
  H      139.635      73.860    -117.660
  H      141.358      73.718    -117.912
  H      140.530      75.192    -118.352

 6  7  8  9  10  11  12  13  14  15  16  26  31  32  33  34  35 0
 6-311+G(2d,p)
 ****
 36  37 0
 6-311+G(2d,p)
 ****
 1  2  3  4  5  17  18  19  20  21  22  23  24  25 0
 3-21G
 ****
 27  28  29  30  38  39  40  41  42  43  44  45 0
 3-21G
 ****


