%nproc=1
%NoSave
%Mem=1900MB
#P OB98/GEN NMR

erre ene a

0 1
  C     -209.636     236.577     -25.098
  O     -209.560     236.437     -23.693
  H     -210.207     235.751     -25.533
  H     -210.144     237.516     -25.329
  H     -208.628     236.603     -25.528
  P     -208.939     235.061     -23.150
  C     -211.148     234.572     -21.885
  O     -209.738     234.704     -21.803
  C     -211.671     233.733     -20.727
  O     -211.196     232.372     -20.841
  C     -211.222     234.201     -19.347
  O     -211.980     235.313     -18.889
  C     -211.501     232.954     -18.520
  O     -212.901     232.895     -18.186
  C     -211.147     231.821     -19.496
  N     -208.516     227.507     -18.571
  C     -209.839     227.738     -18.744
  N     -210.469     228.910     -18.970
  C     -209.583     229.918     -19.040
  C     -208.209     229.839     -18.887
  C     -207.673     228.564     -18.634
  N     -206.326     228.341     -18.448
  N     -207.628     231.079     -19.037
  C     -208.628     231.899     -19.275
  N     -209.836     231.247     -19.279
  O     -207.490     235.491     -22.613
  O     -208.849     233.961     -24.153
  H     -213.080     233.657     -17.600
  H     -206.859     234.768     -22.788
  H     -210.478     226.861     -18.688
  H     -208.533     232.962     -19.451
  H     -211.886     231.010     -19.461
  H     -210.941     232.923     -17.584
  H     -210.144     234.413     -19.330
  H     -212.767     233.711     -20.788
  H     -211.418     234.084     -22.828
  H     -205.984     227.396     -18.468
  H     -205.698     229.139     -18.505
  H     -211.599     235.572     -21.865
  P     -211.190     236.686     -18.622
  C     -212.122     236.744     -16.199
  O     -211.997     237.423     -17.444
  O     -211.539     237.561     -19.914
  O     -209.719     236.548     -18.429
  H     -210.838     238.225     -20.066
  H     -212.679     237.351     -15.516
  H     -211.149     236.556     -15.796
  H     -212.632     235.815     -16.349

 6  7  8  9  10  11  12  13  14  15  25  28  32  33  34  35 0
 6-311+G(2d,p)
 ****
 36  39  40 0
 6-311+G(2d,p)
 ****
 1  2  3  4  5  16  17  18  19  20  21  22  23  24 0
 3-21G
 ****
 26  27  29  30  31  37  38  41  42  43  44  45  46  47  48 0
 3-21G
 ****


