%nproc=1
%NoSave
%Mem=1900MB
#P OB98/GEN NMR

erre ene a

0 1
  C      263.675     498.558     105.008
  O      263.585     499.607     105.954
  H      262.883     497.834     105.215
  H      264.642     498.052     105.088
  H      263.539     498.945     103.993
  P      264.669     500.784     105.893
  C      263.624     502.116     103.939
  O      264.697     501.286     104.367
  C      263.906     502.662     102.543
  O      262.763     503.390     102.050
  C      265.090     503.628     102.474
  O      266.313     502.912     102.415
  C      264.779     504.359     101.178
  O      265.120     503.519     100.058
  C      263.248     504.518     101.266
  N      262.911     509.565     100.852
  C      263.569     508.652     100.049
  N      264.261     509.159      99.007
  N      263.561     507.360     100.258
  C      262.888     507.003     101.376
  C      262.212     507.815     102.259
  C      262.173     509.236     101.978
  O      261.580     510.076     102.650
  N      261.729     507.105     103.327
  C      262.068     505.857     103.065
  N      262.783     505.743     101.894
  O      266.020     500.465     106.452
  O      263.971     502.002     106.662
  H      266.059     503.283     100.152
  H      264.206     502.001     107.609
  H      262.961     510.547     100.643
  H      261.822     505.000     103.682
  H      262.773     504.465     100.283
  H      265.339     505.286     101.071
  H      264.428     510.148      98.882
  H      265.071     504.345     103.301
  H      264.798     508.509      98.443
  H      264.055     501.810     101.871
  H      263.533     502.932     104.660
  H      262.684     501.551     103.930
  P      267.667     503.512     103.034
  C      267.338     502.333     105.311
  O      267.427     503.562     104.617
  O      268.114     504.801     102.429
  O      268.725     502.326     102.896
  H      269.167     502.303     102.011
  H      267.178     502.522     106.352
  H      268.248     501.785     105.184
  H      266.520     501.762     104.922

 6  7  8  9  10  11  12  13  14  15  26  29  33  34 0
 6-311+G(2d,p)
 ****
 36  38  39  40  41 0
 6-311+G(2d,p)
 ****
 1  2  3  4  5  16  17  18  19  20  21  22  23  24  25 0
 3-21G
 ****
 27  28  30  31  32  35  37  42  43  44  45  46  47 0
 3-21G
 ****
 48  49 0
 3-21G
 ****


