%nproc=1
%NoSave
%Mem=1900MB
#P OB98/GEN NMR

erre ene a

0 1
  C     -424.928     124.724    -118.923
  O     -424.073     123.649    -119.253
  H     -425.906     124.320    -118.639
  H     -425.061     125.382    -119.786
  H     -424.528     125.295    -118.081
  P     -422.533     123.956    -119.578
  C     -421.723     123.828    -117.134
  O     -421.914     124.654    -118.273
  C     -420.241     123.488    -116.983
  O     -419.485     124.676    -116.655
  C     -419.950     122.490    -115.867
  O     -420.305     121.178    -116.259
  C     -418.459     122.728    -115.662
  O     -417.688     122.057    -116.670
  C     -418.365     124.264    -115.838
  N     -418.349     124.981    -114.559
  C     -417.113     125.089    -113.932
  O     -416.073     124.615    -114.397
  N     -417.113     125.726    -112.719
  C     -418.221     126.169    -112.051
  O     -418.203     126.529    -110.879
  C     -419.487     126.096    -112.795
  C     -419.498     125.496    -113.991
  O     -422.270     124.668    -120.863
  O     -421.848     122.506    -119.562
  H     -421.722     122.198    -120.481
  H     -418.010     122.386    -117.532
  H     -416.229     125.770    -112.234
  H     -420.379     126.494    -112.326
  H     -420.425     125.405    -114.545
  H     -417.453     124.529    -116.389
  H     -418.110     122.364    -114.695
  H     -420.483     122.781    -114.951
  H     -419.876     123.109    -117.946
  H     -422.296     122.904    -117.277
  H     -422.097     124.348    -116.246
  P     -420.656     120.055    -115.173
  C     -423.185     120.475    -115.185
  O     -421.993     120.505    -114.413
  O     -419.528     119.670    -114.275
  O     -421.142     118.803    -116.051
  H     -420.629     118.011    -115.789
  H     -424.009     120.793    -114.581
  H     -423.360     119.478    -115.532
  H     -423.083     121.132    -116.024

 6  7  8  9  10  11  12  13  14  15  16  27  31  32  33  34  35 0
 6-311+G(2d,p)
 ****
 36  37 0
 6-311+G(2d,p)
 ****
 1  2  3  4  5  17  18  19  20  21  22  23  24  25 0
 3-21G
 ****
 26  28  29  30  38  39  40  41  42  43  44  45 0
 3-21G
 ****


