%nproc=1
%NoSave
%Mem=1900MB
#P OB98/GEN NMR

erre ene a

0 1
  C       31.276      64.655      89.162
  O       31.363      66.026      88.845
  P       32.772      66.687      88.460
  C       33.141      67.015      90.987
  O       33.702      66.551      89.763
  C       34.232      67.149      92.045
  O       34.623      65.850      92.560
  C       35.530      67.752      91.528
  O       35.498      69.099      91.110
  C       36.491      67.396      92.649
  O       36.382      68.311      93.739
  C       35.974      65.995      93.065
  N       36.850      64.927      92.586
  C       37.851      64.524      93.461
  O       38.019      65.013      94.577
  N       38.689      63.545      92.999
  C       38.653      62.979      91.758
  O       39.466      62.139      91.394
  C       37.583      63.458      90.872
  C       36.742      64.396      91.316
  O       32.693      68.065      87.896
  O       33.423      65.613      87.467
  H       36.598      69.201      93.399
  H       33.557      64.730      87.853
  H       39.431      63.247      93.612
  H       37.519      63.019      89.885
  H       35.946      64.766      90.679
  H       35.911      65.921      94.157
  H       37.533      67.417      92.314
  H       35.843      67.179      90.645
  H       33.827      67.720      92.885
  H       32.396      66.291      91.332
  H       32.630      67.968      90.817
  P       36.356      69.660      89.879
  C       38.531      69.947      91.258
  O       37.901      69.338      90.152
  O       36.014      71.030      89.393
  O       35.998      68.597      88.729
  H       36.025      69.045      87.863
  H       39.584      69.654      91.266
  H       38.070      69.614      92.192
  H       38.474      71.037      91.181
  H       30.261      64.405      89.389
  H       31.894      64.445      90.010
  H       31.608      64.074      88.327

 3  4  5  6  7  8  9  10  11  12  13  23  28  29  30  31  32 0
 6-311+G(2d,p)
 ****
 33  34 0
 6-311+G(2d,p)
 ****
 1  2  14  15  16  17  18  19  20  21  22  24  25  26  27 0
 3-21G
 ****
 35  36  37  38  39  40  41  42  43  44  45 0
 3-21G
 ****


