%nproc=1
%NoSave
%Mem=1900MB
#P OB98/GEN NMR

erre ene a

0 1
  C      488.149     -51.957     764.103
  O      487.223     -53.019     764.186
  P      487.613     -54.385     764.923
  C      485.242     -54.753     765.835
  O      486.303     -55.291     765.046
  C      483.967     -55.587     765.664
  O      484.193     -56.954     766.059
  C      482.798     -55.106     766.512
  O      482.235     -53.910     766.021
  C      481.887     -56.329     766.449
  O      481.135     -56.344     765.229
  C      482.907     -57.487     766.477
  N      482.990     -58.132     767.779
  C      482.527     -59.447     767.833
  O      482.016     -59.975     766.850
  N      482.660     -60.137     769.023
  C      483.087     -59.514     770.079
  N      483.249     -60.253     771.213
  C      483.429     -58.076     770.096
  C      483.378     -57.458     768.914
  O      488.390     -54.226     766.191
  O      488.481     -55.176     763.835
  H      489.312     -55.475     764.246
  H      480.715     -57.228     765.171
  H      483.720     -57.595     771.014
  H      483.640     -56.409     768.823
  H      482.642     -58.236     765.721
  H      481.162     -56.349     767.274
  H      483.137     -54.958     767.548
  H      483.695     -55.577     764.600
  H      483.019     -61.244     771.162
  H      485.050     -53.723     765.520
  H      483.865     -59.971     771.968
  H      485.553     -54.734     766.891
  P      481.734     -52.837     767.110
  C      481.064     -51.457     765.020
  O      480.765     -51.813     766.356
  O      483.057     -51.979     767.404
  O      481.188     -53.435     768.365
  H      483.083     -51.731     768.346
  H      480.159     -51.053     764.555
  H      481.404     -52.326     764.446
  H      481.843     -50.689     765.016
  H      487.705     -51.137     763.577
  H      489.023     -52.286     763.580
  H      488.421     -51.643     765.089

 3  4  5  6  7  8  9  10  11  12  13  24  27  28  29  30  32 0
 6-311+G(2d,p)
 ****
 34  35 0
 6-311+G(2d,p)
 ****
 1  2  14  15  16  17  18  19  20  21  22  23  25  26 0
 3-21G
 ****
 31  33  36  37  38  39  40  41  42  43  44  45  46 0
 3-21G
 ****


