%nproc=1
%NoSave
%Mem=1900MB
#P OB98/GEN NMR

erre ene a

0 1
  C     -378.053      -5.196     158.951
  O     -376.679      -4.970     159.196
  H     -378.275      -4.939     157.912
  H     -378.660      -4.566     159.607
  H     -378.302      -6.249     159.116
  P     -376.115      -5.393     160.636
  C     -376.269      -7.994     160.671
  O     -375.458      -6.848     160.453
  C     -375.552      -9.244     160.155
  O     -375.409      -9.131     158.712
  C     -374.148      -9.423     160.744
  O     -373.894     -10.816     160.941
  C     -373.239      -8.886     159.647
  O     -371.915      -9.398     159.700
  C     -374.012      -9.316     158.395
  N     -373.645      -8.538     157.214
  C     -372.420      -8.821     156.618
  O     -371.659      -9.726     156.968
  N     -372.069      -8.010     155.567
  C     -372.795      -6.956     155.084
  O     -372.417      -6.252     154.157
  C     -374.076      -6.702     155.764
  C     -374.434      -7.490     156.780
  O     -377.443      -5.696     161.478
  O     -375.228      -4.396     161.303
  H     -377.751      -4.888     161.934
  H     -371.409      -9.002     158.959
  H     -371.186      -8.201     155.123
  H     -374.673      -5.869     155.413
  H     -375.366      -7.320     157.307
  H     -373.857     -10.385     158.199
  H     -373.182      -7.794     159.710
  H     -374.007      -8.885     161.683
  H     -376.177     -10.123     160.353
  H     -377.215      -7.873     160.132
  H     -376.479      -8.092     161.742
  P     -374.209     -11.426     162.394
  C     -376.654     -12.315     162.112
  O     -375.270     -12.613     162.151
  O     -375.069     -10.252     163.050
  O     -372.978     -11.810     163.145
  H     -375.661      -9.803     162.418
  H     -377.208     -13.215     161.943
  H     -376.848     -11.623     161.319
  H     -376.952     -11.882     163.044

 6  7  8  9  10  11  12  13  14  15  16  27  31  32  33  34  35 0
 6-311+G(2d,p)
 ****
 36  37 0
 6-311+G(2d,p)
 ****
 1  2  3  4  5  17  18  19  20  21  22  23  24  25 0
 3-21G
 ****
 26  28  29  30  38  39  40  41  42  43  44  45 0
 3-21G
 ****


