%nproc=1
%NoSave
%Mem=1900MB
#P OB98/GEN NMR

erre ene a

0 1
  C       11.190      50.595      92.454
  O       12.577      50.693      92.720
  P       13.531      49.494      92.256
  C       12.886      48.281      94.463
  O       13.088      48.180      93.063
  C       12.722      46.890      95.080
  O       12.492      47.022      96.515
  C       11.549      46.085      94.502
  O       11.930      44.701      94.508
  C       10.456      46.316      95.528
  O        9.422      45.345      95.472
  C       11.286      46.292      96.815
  N       10.579      46.866      97.958
  C        9.667      46.051      98.621
  O        9.425      44.888      98.301
  N        8.978      46.638      99.647
  C        9.041      47.952     100.010
  O        8.311      48.443     100.862
  C       10.021      48.766      99.275
  C       10.734      48.196      98.300
  O       14.943      49.878      92.902
  O       13.624      49.308      90.779
  H        9.009      45.308      96.353
  H       15.525      50.283      92.232
  H        8.321      46.059     100.146
  H       10.113      49.808      99.551
  H       11.449      48.778      97.728
  H       11.585      45.264      97.053
  H       10.003      47.300      95.362
  H       11.258      46.396      93.494
  H       13.662      46.339      94.952
  H       11.985      48.865      94.654
  H       13.730      48.808      94.920
  P       12.208      43.993      93.093
  C        9.685      43.362      92.835
  O       10.821      44.001      92.294
  O       12.379      42.467      93.553
  O       13.397      44.537      92.372
  H       11.716      42.198      94.210
  H        9.662      43.436      93.925
  H        9.691      42.308      92.546
  H        8.787      43.834      92.431
  H       10.694      51.468      92.823
  H       10.794      49.728      92.940
  H       11.034      50.515      91.398

 3  4  5  6  7  8  9  10  11  12  13  23  28  29  30  31  32 0
 6-311+G(2d,p)
 ****
 33  34 0
 6-311+G(2d,p)
 ****
 1  2  14  15  16  17  18  19  20  21  22  24  25  26 0
 3-21G
 ****
 27  35  36  37  38  39  40  41  42  43  44  45 0
 3-21G
 ****


