%nproc=1
%NoSave
%Mem=1900MB
#P OB98/GEN NMR

erre ene a

0 1
  C     -282.482     559.844      61.164
  O     -282.350     561.008      60.374
  P     -281.334     561.021      59.140
  C     -282.615     559.569      57.431
  O     -282.203     560.898      57.791
  C     -284.065     559.569      56.970
  O     -284.933     559.975      58.055
  C     -284.360     560.529      55.835
  O     -283.906     560.005      54.594
  C     -285.877     560.665      55.941
  O     -286.534     559.562      55.298
  C     -286.093     560.616      57.461
  N     -289.558     564.217      58.507
  C     -289.623     563.080      57.774
  N     -288.648     562.181      57.503
  C     -287.493     562.571      58.076
  C     -287.252     563.739      58.816
  C     -288.368     564.570      59.052
  N     -288.324     565.692      59.847
  N     -285.926     563.798      59.189
  C     -285.367     562.720      58.685
  N     -286.288     561.923      58.047
  O     -280.180     560.070      59.241
  O     -280.817     562.536      59.083
  H     -287.472     559.574      55.590
  H     -279.852     562.554      59.206
  H     -290.599     562.851      57.354
  H     -284.307     562.467      58.744
  H     -286.958     560.012      57.732
  H     -286.254     561.583      55.476
  H     -283.903     561.507      56.031
  H     -284.342     558.542      56.694
  H     -282.488     558.912      58.300
  H     -289.195     566.137      60.068
  H     -287.536     565.800      60.500
  H     -281.960     559.205      56.621
  P     -284.067     560.880      53.262
  C     -281.926     562.279      53.383
  O     -282.576     561.197      52.753
  O     -284.974     562.045      53.355
  O     -284.583     559.807      52.172
  H     -285.154     560.264      51.525
  H     -282.282     563.237      52.976
  H     -280.836     562.214      53.174
  H     -282.070     562.249      54.467
  H     -283.201     560.018      61.938
  H     -281.537     559.602      61.603
  H     -282.809     559.031      60.550

 3  4  5  6  7  8  9  10  11  12  22  25  29  30  31  32 0
 6-311+G(2d,p)
 ****
 33  36  37 0
 6-311+G(2d,p)
 ****
 1  2  13  14  15  16  17  18  19  20  21  23  24  26 0
 3-21G
 ****
 27  28  34  35  38  39  40  41  42  43  44  45  46  47  48 0
 3-21G
 ****


