%nproc=1
%NoSave
%Mem=1900MB
#P OB98/GEN NMR

erre ene a

0 1
  C     -115.671    -732.222      23.421
  O     -116.499    -731.715      22.404
  H     -114.906    -732.863      22.972
  H     -116.255    -732.822      24.122
  H     -115.170    -731.411      23.956
  P     -117.598    -730.617      22.819
  C     -116.361    -728.773      21.464
  O     -116.869    -729.182      22.734
  C     -115.891    -727.320      21.539
  O     -114.810    -727.213      22.504
  C     -115.370    -726.778      20.193
  O     -115.785    -725.414      20.062
  C     -113.856    -726.841      20.342
  O     -113.182    -725.911      19.501
  C     -113.690    -726.597      21.851
  N     -112.418    -727.136      22.330
  C     -111.287    -726.310      22.198
  O     -111.396    -725.201      21.685
  N     -110.068    -726.783      22.600
  C     -109.962    -728.016      23.012
  N     -108.714    -728.445      23.354
  C     -111.107    -728.943      23.095
  C     -112.298    -728.445      22.752
  O     -117.770    -730.838      24.393
  O     -118.895    -730.701      22.087
  H     -113.107    -726.312      18.598
  H     -118.676    -730.636      24.685
  H     -110.965    -729.969      23.415
  H     -113.194    -729.047      22.788
  H     -113.722    -725.528      22.070
  H     -113.510    -727.848      20.074
  H     -115.731    -727.353      19.332
  H     -116.718    -726.699      21.909
  H     -107.943    -727.789      23.265
  H     -117.164    -728.846      20.715
  H     -108.504    -729.393      23.647
  H     -115.535    -729.434      21.169
  P     -117.036    -725.116      19.100
  C     -118.719    -724.715      21.042
  O     -118.375    -725.481      19.899
  O     -116.917    -726.270      17.994
  O     -117.007    -723.747      18.483
  H     -116.635    -725.896      17.146
  H     -119.634    -725.084      21.457
  H     -118.843    -723.690      20.760
  H     -117.940    -724.793      21.771

 6  7  8  9  10  11  12  13  14  15  16  26  30  31  32  33  35 0
 6-311+G(2d,p)
 ****
 37  38 0
 6-311+G(2d,p)
 ****
 1  2  3  4  5  17  18  19  20  21  22  23  24  25 0
 3-21G
 ****
 27  28  29  34  36  39  40  41  42  43  44  45  46 0
 3-21G
 ****


