%nproc=1
%NoSave
%Mem=1900MB
#P OB98/GEN NMR

erre ene a

0 1
  C       50.999     -61.835     364.495
  O       49.590     -61.871     364.417
  H       51.412     -61.456     363.555
  H       51.293     -61.160     365.306
  H       51.401     -62.833     364.701
  P       48.946     -62.936     363.403
  C       48.944     -65.131     364.800
  O       48.197     -64.022     364.326
  C       48.292     -65.717     366.056
  O       48.604     -64.856     367.187
  C       46.765     -65.825     365.960
  O       46.348     -67.034     366.598
  C       46.275     -64.627     366.752
  O       44.963     -64.821     367.267
  C       47.358     -64.505     367.825
  N       45.452     -61.362     371.373
  C       45.264     -62.677     371.136
  N       45.816     -63.447     370.172
  C       46.683     -62.725     369.431
  C       46.980     -61.375     369.553
  C       46.316     -60.676     370.577
  N       46.477     -59.329     370.799
  N       47.893     -60.992     368.585
  C       48.140     -62.093     367.898
  N       47.425     -63.160     368.368
  O       50.239     -63.725     362.874
  O       48.141     -62.366     362.287
  H       44.813     -64.172     367.986
  H       50.681     -63.194     362.182
  H       44.569     -63.181     371.802
  H       48.810     -62.162     367.051
  H       47.193     -65.191     368.669
  H       46.264     -63.735     366.109
  H       46.405     -65.816     364.932
  H       48.753     -66.691     366.269
  H       49.965     -64.803     365.034
  H       45.912     -58.899     371.523
  H       47.063     -58.790     370.183
  H       48.990     -65.898     364.016
  P       45.433     -68.033     365.735
  C       46.850     -69.750     364.398
  O       46.184     -69.449     365.618
  O       45.528     -67.428     364.251
  O       44.015     -68.104     366.204
  H       44.633     -67.336     363.875
  H       47.300     -70.718     364.467
  H       47.607     -69.017     364.215
  H       46.143     -69.742     363.594

 6  7  8  9  10  11  12  13  14  15  25  28  32  33  34  35 0
 6-311+G(2d,p)
 ****
 36  39  40 0
 6-311+G(2d,p)
 ****
 1  2  3  4  5  16  17  18  19  20  21  22  23  24 0
 3-21G
 ****
 26  27  29  30  31  37  38  41  42  43  44  45  46  47 0
 3-21G
 ****
 48 0
 3-21G
 ****


