%nproc=1
%NoSave
%Mem=1900MB
#P OB98/GEN NMR

erre ene a

0 1
  C      273.688     162.731     253.108
  O      274.462     163.701     253.828
  P      275.310     163.354     255.145
  C      277.555     162.185     255.710
  O      276.670     162.625     254.682
  C      278.794     161.519     255.106
  O      278.414     160.334     254.360
  C      279.565     162.362     254.100
  O      280.302     163.406     254.716
  C      280.424     161.302     253.414
  O      281.619     161.039     254.161
  C      279.503     160.064     253.448
  N      279.005     159.695     252.133
  C      279.889     159.025     251.286
  O      281.061     158.843     251.629
  N      279.435     158.593     250.061
  C      278.235     158.899     249.680
  N      277.830     158.428     248.465
  C      277.313     159.720     250.484
  C      277.755     160.080     251.689
  O      274.545     162.595     256.178
  O      275.806     164.764     255.715
  H      275.955     164.698     256.675
  H      282.252     161.752     253.945
  H      276.334     159.984     250.107
  H      277.136     160.675     252.352
  H      280.036     159.208     253.879
  H      280.731     161.608     252.407
  H      278.862     162.787     253.367
  H      279.454     161.217     255.933
  H      278.484     157.855     247.942
  H      277.027     161.455     256.334
  H      276.908     158.586     248.082
  H      277.833     163.043     256.334
  P      279.883     164.909     254.352
  C      277.472     165.876     254.344
  O      278.490     165.217     255.079
  O      279.491     164.825     252.802
  O      280.954     165.923     254.583
  H      279.803     165.623     252.338
  H      276.504     165.584     254.760
  H      277.501     165.603     253.288
  H      277.591     166.955     254.448
  H      273.216     163.201     252.271
  H      272.941     162.320     253.754
  H      274.330     161.948     252.762

 3  4  5  6  7  8  9  10  11  12  13  24  27  28  29  30  32 0
 6-311+G(2d,p)
 ****
 34  35 0
 6-311+G(2d,p)
 ****
 1  2  14  15  16  17  18  19  20  21  22  23  25  26 0
 3-21G
 ****
 31  33  36  37  38  39  40  41  42  43  44  45  46 0
 3-21G
 ****


