%nproc=1
%NoSave
%Mem=1900MB
#P OB98/GEN NMR

erre ene a

0 1
  C     -107.011     -19.203       0.766
  O     -108.225     -18.569       0.410
  H     -106.940     -19.236       1.857
  H     -106.160     -18.639       0.373
  H     -106.996     -20.226       0.381
  P     -108.507     -18.387      -1.158
  C     -108.632     -15.971      -2.082
  O     -107.810     -16.989      -1.529
  C     -109.621     -15.457      -1.039
  O     -108.926     -15.069       0.159
  C     -110.424     -14.239      -1.479
  O     -111.542     -14.636      -2.257
  C     -110.856     -13.674      -0.134
  O     -112.001     -14.403       0.351
  C     -109.637     -13.957       0.761
  N     -108.772      -9.492       3.145
  C     -109.876     -10.268       3.066
  N     -110.052     -11.412       2.371
  C     -108.928     -11.747       1.713
  C     -107.728     -11.053       1.698
  C     -107.669      -9.875       2.462
  N     -106.542      -9.086       2.538
  N     -106.798     -11.696       0.907
  C     -107.410     -12.791       0.503
  N     -108.712     -12.851       0.933
  O     -109.927     -18.547      -1.584
  O     -107.487     -19.456      -1.778
  H     -111.708     -15.323       0.498
  H     -106.640     -19.437      -1.299
  H     -110.733      -9.920       3.636
  H     -106.951     -13.580      -0.084
  H     -109.938     -14.269       1.769
  H     -111.149     -12.624      -0.194
  H     -109.797     -13.502      -1.994
  H     -110.290     -16.287      -0.771
  H     -109.179     -16.356      -2.951
  H     -106.646      -8.170       2.946
  H     -105.769      -9.305       1.926
  H     -107.977     -15.160      -2.417
  P     -112.309     -13.589      -3.201
  C     -114.552     -12.611      -2.411
  O     -113.146     -12.662      -2.196
  O     -113.083     -14.210      -4.310
  O     -111.157     -12.609      -3.719
  H     -111.471     -12.107      -4.497
  H     -115.001     -11.966      -1.685
  H     -114.963     -13.594      -2.317
  H     -114.749     -12.235      -3.393

 6  7  8  9  10  11  12  13  14  15  25  28  32  33  34  35 0
 6-311+G(2d,p)
 ****
 36  39  40 0
 6-311+G(2d,p)
 ****
 1  2  3  4  5  16  17  18  19  20  21  22  23  24 0
 3-21G
 ****
 26  27  29  30  31  37  38  41  42  43  44  45  46  47 0
 3-21G
 ****
 48 0
 3-21G
 ****


