%nproc=1
%NoSave
%Mem=1900MB
#P OB98/GEN NMR

erre ene a

0 1
  C      177.954      36.788    -158.483
  O      179.262      36.764    -157.947
  H      177.440      37.680    -158.113
  H      177.402      35.902    -158.157
  H      177.989      36.827    -159.576
  P      180.250      35.628    -158.507
  C      182.857      35.717    -158.210
  O      181.575      35.725    -157.609
  C      183.933      36.097    -157.189
  O      183.832      37.517    -156.915
  C      183.806      35.354    -155.858
  O      185.120      35.104    -155.353
  C      183.107      36.361    -154.961
  O      183.345      36.107    -153.579
  C      183.681      37.684    -155.491
  N      182.832      38.829    -155.169
  C      182.903      39.316    -153.860
  O      183.643      38.776    -153.036
  N      182.106      40.372    -153.501
  C      181.261      40.860    -154.354
  N      180.480      41.889    -153.929
  C      181.120      40.349    -155.731
  C      181.934      39.351    -156.071
  O      180.697      36.247    -159.914
  O      179.640      34.269    -158.598
  H      184.310      35.972    -153.448
  H      180.923      37.191    -159.866
  H      180.393      40.782    -156.404
  H      181.904      38.920    -157.065
  H      184.679      37.866    -155.069
  H      182.024      36.324    -155.127
  H      183.259      34.413    -155.948
  H      184.917      35.929    -157.642
  H      180.593      42.193    -152.969
  H      182.889      36.420    -159.048
  H      179.752      42.309    -154.488
  H      183.043      34.712    -158.601
  P      185.674      33.604    -155.307
  C      188.110      32.868    -154.838
  O      186.957      33.542    -154.346
  O      185.835      32.931    -156.628
  O      184.559      32.844    -154.430
  H      184.405      31.970    -154.838
  H      188.885      32.902    -154.101
  H      188.448      33.347    -155.733
  H      187.864      31.848    -155.050

 6  7  8  9  10  11  12  13  14  15  16  26  30  31  32  33  35 0
 6-311+G(2d,p)
 ****
 37  38 0
 6-311+G(2d,p)
 ****
 1  2  3  4  5  17  18  19  20  21  22  23  24  25 0
 3-21G
 ****
 27  28  29  34  36  39  40  41  42  43  44  45  46 0
 3-21G
 ****


