%nproc=1
%NoSave
%Mem=1900MB
#P OB98/GEN NMR

erre ene a

0 1
  C      183.273     244.850    -408.772
  O      183.110     245.779    -407.694
  P      181.973     246.911    -407.880
  C      183.266     248.869    -408.986
  O      182.674     248.352    -407.800
  C      184.348     249.917    -408.677
  O      183.767     251.103    -408.080
  C      185.437     249.408    -407.726
  O      186.665     250.031    -408.112
  C      184.997     249.970    -406.384
  O      186.087     250.022    -405.468
  C      184.429     251.339    -406.823
  N      183.535     251.923    -405.830
  C      183.867     253.183    -405.332
  O      184.921     253.733    -405.675
  N      183.028     253.792    -404.429
  C      181.970     253.161    -404.012
  N      181.181     253.804    -403.117
  C      181.610     251.800    -404.469
  C      182.411     251.256    -405.364
  O      181.131     246.818    -406.522
  O      181.105     246.684    -409.075
  H      186.798     250.584    -405.862
  H      180.179     246.762    -406.718
  H      180.724     251.303    -404.081
  H      182.234     250.260    -405.755
  H      185.244     252.054    -407.001
  H      184.206     249.348    -405.944
  H      185.547     248.321    -407.733
  H      184.804     250.214    -409.627
  H      181.453     254.736    -402.831
  H      182.492     249.322    -409.611
  H      180.336     253.411    -402.725
  H      183.678     248.036    -409.566
  P      187.680     249.201    -409.024
  C      189.161     248.202    -407.174
  O      189.061     249.182    -408.200
  O      188.032     250.284    -410.171
  O      187.224     247.908    -409.614
  H      188.595     249.870    -410.846
  H      190.181     248.214    -406.780
  H      188.951     247.209    -407.579
  H      188.465     248.437    -406.357
  H      184.050     244.156    -408.530
  H      183.534     245.381    -409.664
  H      182.357     244.320    -408.927

 3  4  5  6  7  8  9  10  11  12  13  21  23  27  28  29  30  32 0
 6-311+G(2d,p)
 ****
 34  35 0
 6-311+G(2d,p)
 ****
 1  2  14  15  16  17  18  19  20  22  24  25  26 0
 3-21G
 ****
 31  33  36  37  38  39  40  41  42  43  44  45  46 0
 3-21G
 ****


