%nproc=1
%NoSave
%Mem=1900MB
#P OB98/GEN NMR

erre ene a

0 1
  C     -191.570    -527.897     388.343
  O     -190.939    -528.044     389.600
  H     -190.971    -528.411     387.588
  H     -191.651    -526.843     388.067
  H     -192.562    -528.353     388.368
  P     -191.474    -527.153     390.824
  C     -190.977    -524.754     391.643
  O     -190.531    -525.845     390.848
  C     -190.123    -523.506     391.414
  O     -188.823    -523.659     392.022
  C     -189.831    -523.218     389.952
  O     -190.957    -522.845     389.186
  C     -188.652    -522.257     390.050
  O     -189.063    -520.917     390.299
  C     -187.909    -522.824     391.282
  N     -186.695    -523.551     390.916
  C     -185.551    -522.771     390.727
  O     -185.537    -521.541     390.841
  N     -184.421    -523.451     390.379
  C     -184.331    -524.796     390.156
  O     -183.284    -525.348     389.825
  C     -185.580    -525.562     390.328
  C     -186.688    -524.911     390.702
  O     -191.565    -527.854     392.148
  O     -192.873    -526.577     390.300
  H     -189.633    -520.650     389.552
  H     -193.412    -526.216     391.046
  H     -183.575    -522.913     390.255
  H     -185.545    -526.628     390.150
  H     -187.619    -525.455     390.833
  H     -187.619    -522.008     391.963
  H     -188.049    -522.252     389.138
  H     -189.446    -524.135     389.487
  H     -190.624    -522.660     391.900
  H     -190.903    -525.056     392.695
  H     -192.029    -524.541     391.411
  P     -191.312    -523.471     387.764
  C     -190.930    -522.841     385.258
  O     -190.744    -522.495     386.622
  O     -192.692    -524.019     387.594
  O     -190.284    -524.716     387.693
  H     -190.731    -525.438     387.196
  H     -190.494    -522.087     384.636
  H     -191.977    -522.915     385.048
  H     -190.460    -523.782     385.061

 6  7  8  9  10  11  12  13  14  15  16  26  31  32  33  34  35 0
 6-311+G(2d,p)
 ****
 36  37 0
 6-311+G(2d,p)
 ****
 1  2  3  4  5  17  18  19  20  21  22  23  24  25 0
 3-21G
 ****
 27  28  29  30  38  39  40  41  42  43  44  45 0
 3-21G
 ****


