%nproc=1
%NoSave
%Mem=1900MB
#P OB98/GEN NMR

erre ene a

0 1
  C     -554.980     510.651     325.960
  O     -555.446     511.925     326.419
  P     -554.713     513.219     325.827
  C     -556.547     514.053     324.170
  O     -555.842     514.277     325.395
  C     -557.779     514.957     324.099
  O     -558.852     514.467     324.930
  C     -557.517     516.376     324.578
  O     -556.781     517.113     323.622
  C     -558.935     516.871     324.819
  O     -559.551     517.248     323.561
  C     -559.623     515.600     325.365
  N     -562.554     516.897     329.361
  C     -562.728     517.051     328.023
  N     -561.905     516.687     327.030
  C     -560.792     516.094     327.515
  C     -560.484     515.867     328.847
  C     -561.417     516.307     329.798
  N     -561.234     516.169     331.159
  N     -559.261     515.243     328.960
  C     -558.828     515.107     327.724
  N     -559.728     515.598     326.817
  O     -554.125     512.701     324.429
  O     -553.643     513.761     326.711
  H     -559.439     516.482     322.968
  H     -553.152     512.628     324.489
  H     -563.647     517.526     327.725
  H     -557.877     514.673     327.433
  H     -560.646     515.485     324.966
  H     -558.996     517.737     325.486
  H     -556.964     516.363     325.537
  H     -558.118     514.973     323.058
  H     -556.844     513.001     324.097
  H     -561.921     516.588     331.769
  H     -560.356     515.806     331.498
  H     -555.877     514.244     323.330
  P     -556.098     518.481     324.088
  C     -553.747     517.672     323.419
  O     -554.783     518.607     323.160
  O     -555.484     518.070     325.503
  O     -556.991     519.674     324.096
  H     -555.026     517.205     325.464
  H     -552.942     517.835     322.703
  H     -554.122     516.655     323.326
  H     -553.350     517.828     324.440
  H     -555.548     509.874     326.428
  H     -553.946     510.538     326.211
  H     -555.098     510.589     324.898

 3  4  5  6  7  8  9  10  11  12  22  25  29  30  31  32 0
 6-311+G(2d,p)
 ****
 33  36  37 0
 6-311+G(2d,p)
 ****
 1  2  13  14  15  16  17  18  19  20  21  23  24  26 0
 3-21G
 ****
 27  28  34  35  38  39  40  41  42  43  44  45  46  47  48 0
 3-21G
 ****


