%nproc=1
%NoSave
%Mem=1900MB
#P OB98/GEN NMR

erre ene a

0 1
  C     -726.858     489.084     238.248
  O     -726.389     489.561     239.496
  H     -726.761     487.995     238.230
  H     -726.260     489.506     237.435
  H     -727.909     489.351     238.116
  P     -726.393     491.153     239.695
  C     -728.111     491.162     241.632
  O     -727.833     491.531     240.290
  C     -728.743     492.329     242.387
  O     -727.788     493.397     242.565
  C     -729.960     492.938     241.703
  O     -731.133     492.201     242.003
  C     -729.973     494.334     242.307
  O     -730.558     494.322     243.626
  C     -728.474     494.665     242.383
  N     -724.282     496.582     240.316
  C     -724.482     496.006     241.555
  N     -723.416     495.964     242.387
  N     -725.634     495.534     241.966
  C     -726.626     495.698     241.056
  C     -726.552     496.244     239.797
  C     -725.258     496.715     239.344
  O     -725.000     497.155     238.224
  N     -727.771     496.215     239.167
  C     -728.585     495.679     240.057
  N     -727.934     495.352     241.221
  O     -726.454     491.715     238.193
  O     -725.220     491.710     240.430
  H     -730.015     493.769     244.210
  H     -725.901     492.517     238.136
  H     -723.367     496.897     240.049
  H     -729.641     495.500     239.909
  H     -728.235     495.288     243.253
  H     -730.570     495.026     241.710
  H     -722.612     496.559     242.255
  H     -729.806     493.014     240.620
  H     -723.585     495.614     243.323
  H     -729.010     491.966     243.389
  H     -727.176     490.875     242.124
  H     -728.796     490.306     241.638
  P     -732.336     492.231     240.944
  C     -731.387     490.184     239.659
  O     -731.826     491.538     239.591
  O     -732.430     493.784     240.558
  O     -733.639     491.732     241.472
  H     -733.210     494.184     240.984
  H     -731.079     489.860     238.687
  H     -732.190     489.566     240.003
  H     -730.563     490.110     240.338

 6  7  8  9  10  11  12  13  14  15  26  29  33  34 0
 6-311+G(2d,p)
 ****
 36  38  39  40  41 0
 6-311+G(2d,p)
 ****
 1  2  3  4  5  16  17  18  19  20  21  22  23  24  25 0
 3-21G
 ****
 27  28  30  31  32  35  37  42  43  44  45  46  47 0
 3-21G
 ****
 48  49 0
 3-21G
 ****


