%nproc=1
%NoSave
%Mem=1900MB
#P OB98/GEN NMR

erre ene a

0 1
  C      963.790     149.814    -105.875
  O      962.657     150.079    -106.675
  P      961.222     149.444    -106.341
  C      960.186     147.087    -106.519
  O      961.291     147.927    -106.869
  C      960.061     145.912    -107.489
  O      959.604     146.398    -108.790
  C      961.375     145.130    -107.728
  O      960.983     143.770    -107.927
  C      961.870     145.736    -109.023
  O      962.827     144.900    -109.683
  C      960.566     145.963    -109.783
  N      960.714     146.936    -110.862
  C      959.872     146.779    -111.964
  O      959.110     145.812    -112.028
  N      959.951     147.684    -112.988
  C      960.864     148.606    -112.958
  N      960.888     149.487    -114.001
  C      961.856     148.728    -111.883
  C      961.714     147.880    -110.856
  O      960.051     150.231    -106.831
  O      961.250     149.255    -104.751
  H      962.340     144.202    -110.167
  H      961.101     150.122    -104.298
  H      962.630     149.479    -111.925
  H      962.391     147.892    -110.013
  H      960.190     145.015    -110.209
  H      962.368     146.696    -108.816
  H      962.082     145.213    -106.907
  H      959.287     145.232    -107.105
  H      960.181     149.370    -114.714
  H      959.280     147.689    -106.575
  H      961.505     150.292    -114.042
  H      960.304     146.735    -105.490
  P      962.071     142.579    -107.891
  C      963.368     141.207    -109.609
  O      962.557     142.352    -109.397
  O      961.618     141.344    -107.170
  O      963.360     143.243    -107.180
  H      963.957     142.531    -106.889
  H      963.410     140.996    -110.694
  H      962.969     140.336    -109.093
  H      964.386     141.392    -109.251
  H      964.637     150.333    -106.273
  H      963.986     148.762    -105.871
  H      963.606     150.146    -104.875

 3  4  5  6  7  8  9  10  11  12  13  23  27  28  29  30  32 0
 6-311+G(2d,p)
 ****
 34  35 0
 6-311+G(2d,p)
 ****
 1  2  14  15  16  17  18  19  20  21  22  24  25  26 0
 3-21G
 ****
 31  33  36  37  38  39  40  41  42  43  44  45  46 0
 3-21G
 ****


