%nproc=1
%NoSave
%Mem=1900MB
#P OB98/GEN NMR

erre ene a

0 1
  C     -382.122    -193.239     304.364
  O     -380.715    -193.226     304.281
  H     -382.463    -194.276     304.416
  H     -382.553    -192.775     303.473
  H     -382.461    -192.711     305.260
  P     -379.982    -191.799     304.354
  C     -378.288    -192.343     302.462
  O     -378.479    -192.030     303.833
  C     -376.799    -192.527     302.161
  O     -376.393    -193.850     302.602
  C     -376.453    -192.400     300.675
  O     -375.196    -191.726     300.557
  C     -376.302    -193.841     300.216
  O     -375.456    -193.967     299.072
  C     -375.771    -194.515     301.487
  N     -376.051    -195.950     301.485
  C     -374.951    -196.802     301.611
  O     -373.813    -196.338     301.702
  N     -375.155    -198.159     301.566
  C     -376.345    -198.620     301.336
  N     -376.478    -199.974     301.273
  C     -377.525    -197.755     301.128
  C     -377.308    -196.446     301.224
  O     -379.792    -191.560     305.924
  O     -380.703    -190.676     303.689
  H     -375.908    -193.548     298.309
  H     -379.833    -190.610     306.144
  H     -378.487    -198.186     300.911
  H     -378.110    -195.732     301.084
  H     -374.687    -194.369     301.577
  H     -377.287    -194.244     299.953
  H     -377.208    -191.860     300.101
  H     -376.232    -191.803     302.758
  H     -375.642    -200.531     301.399
  H     -378.675    -191.522     301.851
  H     -377.347    -200.442     301.050
  H     -378.842    -193.255     302.216
  P     -375.110    -190.546     299.476
  C     -373.406    -191.581     297.806
  O     -373.655    -190.593     298.798
  O     -375.071    -189.225     300.373
  O     -376.256    -190.531     298.512
  H     -375.918    -188.746     300.297
  H     -372.401    -191.486     297.452
  H     -374.086    -191.447     296.991
  H     -373.544    -192.554     298.229

 6  7  8  9  10  11  12  13  14  15  16  26  30  31  32  33  35 0
 6-311+G(2d,p)
 ****
 37  38 0
 6-311+G(2d,p)
 ****
 1  2  3  4  5  17  18  19  20  21  22  23  24  25 0
 3-21G
 ****
 27  28  29  34  36  39  40  41  42  43  44  45  46 0
 3-21G
 ****


