%nproc=1
%NoSave
%Mem=1900MB
#P OB98/GEN NMR

erre ene a

0 1
  C      213.463     -78.453      31.867
  O      214.356     -77.934      30.902
  H      214.028     -79.069      32.570
  H      212.708     -79.079      31.384
  H      212.977     -77.646      32.421
  P      213.809     -76.869      29.836
  C      215.086     -78.405      28.204
  O      214.651     -77.083      28.490
  C      215.405     -78.536      26.716
  O      214.255     -78.163      25.926
  C      216.538     -77.632      26.248
  O      217.797     -78.148      26.636
  C      216.290     -77.617      24.749
  O      216.821     -78.796      24.127
  C      214.747     -77.605      24.687
  N      214.198     -76.270      24.452
  C      213.436     -76.106      23.300
  O      213.243     -77.006      22.485
  N      212.920     -74.853      23.100
  C      213.183     -73.749      23.858
  O      212.769     -72.628      23.584
  C      214.015     -73.976      25.048
  C      214.475     -75.205      25.289
  O      213.728     -75.459      30.315
  O      212.362     -77.437      29.446
  H      216.918     -78.586      23.178
  H      211.675     -76.898      29.880
  H      212.377     -74.710      22.264
  H      214.233     -73.128      25.683
  H      215.095     -75.390      26.157
  H      214.394     -78.265      23.884
  H      216.757     -76.761      24.262
  H      216.398     -76.619      26.640
  H      215.633     -79.589      26.505
  H      214.287     -79.104      28.469
  H      215.969     -78.628      28.812
  P      218.909     -77.168      27.239
  C      221.119     -78.289      26.555
  O      220.193     -78.055      27.611
  O      218.438     -76.255      28.320
  O      219.408     -76.332      25.968
  H      219.234     -75.383      26.117
  H      221.929     -78.887      26.917
  H      221.498     -77.354      26.199
  H      220.626     -78.802      25.756

 6  7  8  9  10  11  12  13  14  15  16  26  31  32  33  34  35 0
 6-311+G(2d,p)
 ****
 36  37 0
 6-311+G(2d,p)
 ****
 1  2  3  4  5  17  18  19  20  21  22  23  24  25 0
 3-21G
 ****
 27  28  29  30  38  39  40  41  42  43  44  45 0
 3-21G
 ****


