%nproc=1
%NoSave
%Mem=1900MB
#P OB98/GEN NMR

erre ene a

0 1
  C       30.320      24.292    -131.137
  O       31.615      23.893    -130.722
  P       31.785      23.414    -129.200
  C       33.065      25.641    -128.793
  O       32.050      24.745    -128.349
  C       33.108      26.879    -127.903
  O       31.836      27.553    -127.933
  C       33.377      26.579    -126.439
  O       34.750      26.313    -126.229
  C       32.886      27.859    -125.774
  O       33.920      28.856    -125.745
  C       31.725      28.295    -126.698
  N       30.422      28.110    -126.082
  C       29.733      29.283    -125.750
  O       30.245      30.382    -125.966
  N       28.503      29.177    -125.149
  C       28.011      28.004    -124.898
  N       26.786      27.959    -124.306
  C       28.713      26.745    -125.213
  C       29.905      26.870    -125.793
  O       33.207      22.684    -129.206
  O       30.693      22.528    -128.698
  H       33.611      29.540    -125.116
  H       33.256      22.012    -128.499
  H       28.257      25.793    -124.983
  H       30.490      25.996    -126.057
  H       31.827      29.354    -126.964
  H       32.581      27.689    -124.737
  H       32.769      25.731    -126.101
  H       33.867      27.564    -128.302
  H       26.333      28.839    -124.096
  H       32.849      25.951    -129.820
  H       26.307      27.096    -124.090
  H       34.027      25.120    -128.781
  P       35.178      25.669    -124.827
  C       36.896      27.522    -124.390
  O       35.702      26.903    -123.950
  O       36.544      24.920    -125.202
  O       34.199      24.756    -124.169
  H       36.858      24.399    -124.441
  H       37.054      28.433    -123.808
  H       36.823      27.788    -125.448
  H       37.744      26.850    -124.232
  H       30.350      24.585    -132.166
  H       29.993      25.118    -130.540
  H       29.640      23.475    -131.018

 3  4  5  6  7  8  9  10  11  12  13  21  23  27  28  29  30  32 0
 6-311+G(2d,p)
 ****
 34  35 0
 6-311+G(2d,p)
 ****
 1  2  14  15  16  17  18  19  20  22  24  25  26 0
 3-21G
 ****
 31  33  36  37  38  39  40  41  42  43  44  45  46 0
 3-21G
 ****


