%nproc=1
%NoSave
%Mem=1900MB
#P OB98/GEN NMR

erre ene a

0 1
  C      106.152     -78.205     279.622
  O      106.256     -79.326     280.476
  H      106.648     -77.355     280.097
  H      105.106     -77.946     279.448
  H      106.649     -78.411     278.669
  P      105.473     -80.668     280.090
  C      103.065     -80.058     280.772
  O      103.980     -80.226     279.697
  C      101.643     -79.853     280.246
  O      101.308     -80.968     279.377
  C      100.585     -79.777     281.353
  O       99.601     -78.814     280.969
  C       99.996     -81.171     281.346
  O       98.689     -81.187     281.886
  C      100.090     -81.560     279.868
  N      100.082     -83.013     279.700
  C       99.056     -83.711     280.345
  O       98.208     -83.101     281.001
  N       99.047     -85.079     280.292
  C      100.011     -85.706     279.694
  N       99.962     -87.066     279.712
  C      101.131     -85.015     279.023
  C      101.102     -83.682     279.063
  O      105.554     -81.785     281.076
  O      106.111     -81.084     278.680
  H       98.693     -80.747     282.763
  H      106.870     -81.680     278.820
  H      101.912     -85.583     278.544
  H      101.887     -83.091     278.607
  H       99.254     -81.136     279.298
  H      100.621     -81.839     281.953
  H      101.004     -79.514     282.329
  H      101.629     -78.950     279.625
  H       99.190     -87.496     280.207
  H      103.376     -79.177     281.343
  H      100.675     -87.661     279.319
  H      103.100     -80.933     281.429
  P       99.530     -77.384     281.692
  C       98.711     -78.288     283.942
  O       99.752     -77.585     283.271
  O       98.338     -76.558     281.333
  O      100.880     -76.651     281.224
  H      100.728     -75.688     281.194
  H       98.949     -78.370     284.982
  H       98.612     -79.266     283.520
  H       97.790     -77.755     283.828

 6  7  8  9  10  11  12  13  14  15  16  26  30  31  32  33  35 0
 6-311+G(2d,p)
 ****
 37  38 0
 6-311+G(2d,p)
 ****
 1  2  3  4  5  17  18  19  20  21  22  23  24  25 0
 3-21G
 ****
 27  28  29  34  36  39  40  41  42  43  44  45  46 0
 3-21G
 ****


