%nproc=1
%NoSave
%Mem=1900MB
#P OB98/GEN NMR

erre ene a

0 1
  C      127.792    -783.982      58.438
  O      126.701    -783.066      58.460
  P      125.424    -783.456      59.357
  C      124.488    -784.167      57.044
  O      124.545    -784.435      58.449
  C      124.440    -785.472      56.255
  O      125.560    -786.302      56.628
  C      123.211    -786.316      56.494
  O      122.093    -785.864      55.750
  C      123.684    -787.684      56.011
  O      123.564    -787.736      54.575
  C      125.162    -787.683      56.430
  N      126.900    -792.021      58.363
  C      126.797    -791.618      57.048
  N      127.241    -792.489      56.114
  N      126.296    -790.466      56.677
  C      125.921    -789.686      57.722
  C      125.980    -789.984      59.065
  C      126.493    -791.274      59.456
  O      126.550    -791.717      60.609
  N      125.528    -788.925      59.819
  C      125.243    -787.984      58.942
  N      125.434    -788.418      57.647
  O      124.579    -782.103      59.376
  O      125.739    -783.936      60.736
  H      122.618    -787.837      54.375
  H      124.015    -782.075      60.177
  H      127.317    -792.908      58.595
  H      124.887    -787.000      59.180
  H      125.798    -788.077      55.624
  H      123.102    -788.511      56.419
  H      127.760    -793.327      56.352
  H      122.973    -786.378      57.572
  H      127.216    -792.201      55.144
  H      124.543    -785.226      55.190
  H      125.383    -783.604      56.757
  H      123.600    -783.560      56.833
  P      120.827    -785.320      56.590
  C      119.393    -787.295      55.675
  O      119.892    -786.600      56.814
  O      120.029    -784.433      55.519
  O      121.196    -784.549      57.814
  H      119.514    -783.747      55.978
  H      120.138    -787.308      54.859
  H      118.485    -786.794      55.327
  H      119.168    -788.315      55.961
  H      128.566    -783.599      57.807
  H      127.458    -784.926      58.060
  H      128.171    -784.109      59.431

 3  4  5  6  7  8  9  10  11  12  23  26  30  31  33  0
 6-311+G(2d,p)
 ****
 35  36  37  38 0
 6-311+G(2d,p)
 ****
 1  2  13  14  15  16  17  18  19  20  21  22  24  25  27  28  29 0
 3-21G
 ****
 32  34  39  40  41  42  43  44  45  46  47  48  49 0
 3-21G
 ****


