%nproc=1
%NoSave
%Mem=1900MB
#P OB98/GEN NMR

erre ene a

0 1
  C     -172.306    -530.012     354.548
  O     -171.603    -528.772     354.703
  P     -172.104    -527.536     353.806
  C     -171.849    -525.702     355.618
  O     -171.421    -526.194     354.354
  C     -170.782    -524.821     356.282
  O     -169.772    -525.636     356.939
  C     -170.051    -523.899     355.292
  O     -169.736    -522.692     355.998
  C     -168.765    -524.648     355.012
  O     -167.751    -523.772     354.515
  C     -168.477    -525.257     356.401
  N     -167.564    -526.399     356.350
  C     -166.281    -526.161     355.860
  O     -165.974    -525.038     355.423
  N     -165.372    -527.190     355.826
  C     -165.740    -528.382     356.205
  N     -164.800    -529.368     356.139
  C     -167.109    -528.692     356.669
  C     -167.955    -527.669     356.717
  O     -173.647    -527.383     354.212
  O     -171.948    -527.777     352.334
  H     -168.162    -523.173     353.854
  H     -174.202    -527.335     353.412
  H     -167.371    -529.702     356.948
  H     -168.972    -527.798     357.053
  H     -168.043    -524.513     357.063
  H     -168.936    -525.439     354.273
  H     -170.638    -523.670     354.400
  H     -171.269    -524.214     357.054
  H     -163.871    -529.104     355.819
  H     -172.083    -526.538     356.277
  H     -164.976    -530.319     356.406
  H     -172.788    -525.151     355.485
  P     -170.486    -521.344     355.553
  C     -170.660    -520.635     358.020
  O     -170.172    -520.294     356.732
  O     -172.021    -521.717     355.849
  O     -170.305    -520.858     354.153
  H     -172.595    -520.982     355.555
  H     -170.272    -519.903     358.734
  H     -170.314    -521.638     358.304
  H     -171.750    -520.596     358.031
  H     -171.878    -530.748     355.196
  H     -172.228    -530.342     353.533
  H     -173.337    -529.872     354.800

 3  4  5  6  7  8  9  10  11  12  13  21  23  27  28  29  30  32 0
 6-311+G(2d,p)
 ****
 34  35 0
 6-311+G(2d,p)
 ****
 1  2  14  15  16  17  18  19  20  22  24  25  26 0
 3-21G
 ****
 31  33  36  37  38  39  40  41  42  43  44  45  46 0
 3-21G
 ****


