%nproc=1
%NoSave
%Mem=1900MB
#P OB98/GEN NMR

erre ene a

0 1
  C      191.432    -355.157    -263.221
  O      190.554    -356.207    -263.571
  H      190.853    -354.356    -262.755
  H      191.918    -354.764    -264.117
  H      192.185    -355.508    -262.512
  P      191.216    -357.529    -264.192
  C      189.361    -359.325    -263.953
  O      190.011    -358.395    -264.809
  C      188.597    -360.365    -264.766
  O      187.334    -359.782    -265.210
  C      189.339    -360.860    -266.019
  O      189.016    -362.244    -266.206
  C      188.682    -360.065    -267.136
  O      188.842    -360.680    -268.414
  C      187.242    -360.022    -266.628
  N      184.812    -358.923    -270.895
  C      185.467    -360.075    -270.507
  N      185.475    -361.095    -271.391
  N      186.060    -360.217    -269.352
  C      185.941    -359.127    -268.552
  C      185.329    -357.927    -268.820
  C      184.698    -357.776    -270.114
  O      184.123    -356.772    -270.523
  N      185.454    -357.064    -267.761
  C      186.139    -357.741    -266.856
  N      186.459    -358.997    -267.292
  O      191.644    -358.354    -262.889
  O      192.368    -357.296    -265.111
  H      188.316    -360.166    -269.062
  H      192.572    -358.157    -262.655
  H      184.385    -358.862    -271.802
  H      186.429    -357.370    -265.885
  H      186.717    -360.971    -266.782
  H      189.112    -359.058    -267.185
  H      185.001    -361.077    -272.279
  H      190.423    -360.734    -265.980
  H      185.914    -361.966    -271.106
  H      188.339    -361.205    -264.107
  H      188.659    -358.784    -263.307
  H      190.111    -359.820    -263.324
  P      189.759    -363.322    -265.285
  C      187.846    -365.082    -265.345
  O      189.193    -364.772    -265.662
  O      189.116    -363.057    -263.840
  O      191.246    -363.190    -265.260
  H      189.748    -363.311    -263.144
  H      187.626    -366.081    -265.660
  H      187.195    -364.398    -265.848
  H      187.701    -365.001    -264.288

 6  7  8  9  10  11  12  13  14  15  26  29  33  34 0
 6-311+G(2d,p)
 ****
 36  38  39  40  41 0
 6-311+G(2d,p)
 ****
 1  2  3  4  5  16  17  18  19  20  21  22  23  24  25 0
 3-21G
 ****
 27  28  30  31  32  35  37  42  43  44  45  46  47 0
 3-21G
 ****
 48  49 0
 3-21G
 ****


