%nproc=1
%NoSave
%Mem=1900MB
#P OB98/GEN NMR

erre ene a

0 1
  C      140.638      75.515      77.870
  O      141.839      75.676      77.137
  P      143.131      76.199      77.929
  C      144.745      74.616      76.630
  O      144.221      75.026      77.886
  C      144.794      73.088      76.565
  O      143.459      72.544      76.498
  C      145.517      72.552      75.338
  O      146.926      72.616      75.496
  C      144.980      71.130      75.259
  O      145.706      70.256      76.137
  C      143.528      71.311      75.749
  N      142.561      71.286      74.655
  C      141.619      70.261      74.700
  O      141.604      69.405      75.587
  N      140.722      70.226      73.668
  C      140.706      71.064      72.591
  O      139.909      70.950      71.667
  C      141.743      72.111      72.582
  C      142.612      72.167      73.594
  O      142.659      76.225      79.460
  O      143.636      77.529      77.482
  H      145.441      70.494      77.048
  H      143.073      76.979      79.920
  H      140.017      69.508      73.695
  H      141.759      72.792      71.743
  H      143.391      72.921      73.599
  H      143.267      70.515      76.456
  H      145.063      70.713      74.251
  H      145.198      73.105      74.444
  H      145.268      72.718      77.484
  H      145.752      75.023      76.507
  H      144.113      75.014      75.831
  P      147.738      73.494      74.422
  C      148.459      75.198      76.267
  O      147.791      74.970      75.046
  O      146.669      73.579      73.234
  O      149.046      72.886      74.043
  H      145.754      73.588      73.564
  H      149.344      74.564      76.365
  H      147.776      74.998      77.098
  H      148.769      76.245      76.309
  H      139.866      75.163      77.218
  H      140.348      76.455      78.291
  H      140.792      74.805      78.656

 3  4  5  6  7  8  9  10  11  12  13  23  28  29  30  31  32 0
 6-311+G(2d,p)
 ****
 33  34 0
 6-311+G(2d,p)
 ****
 1  2  14  15  16  17  18  19  20  21  22  24  25  26 0
 3-21G
 ****
 27  35  36  37  38  39  40  41  42  43  44  45 0
 3-21G
 ****


