%nproc=1
%NoSave
%Mem=1900MB
#P OB98/GEN NMR

erre ene a

0 1
  C     -412.243     259.920    -277.028
  O     -411.309     259.182    -276.262
  H     -411.805     260.878    -277.333
  H     -412.495     259.350    -277.928
  H     -413.159     260.089    -276.454
  P     -410.809     259.878    -274.901
  C     -408.538     260.786    -275.762
  O     -409.855     261.100    -275.324
  C     -407.874     262.032    -276.359
  O     -407.772     263.038    -275.318
  C     -406.452     261.776    -276.919
  O     -406.339     262.298    -278.247
  C     -405.544     262.586    -275.999
  O     -404.425     263.135    -276.678
  C     -406.480     263.655    -275.460
  N     -402.381     265.278    -272.908
  C     -402.616     265.168    -274.232
  N     -403.767     264.827    -274.858
  C     -404.750     264.611    -273.948
  C     -404.657     264.706    -272.569
  C     -403.402     265.043    -272.044
  N     -403.132     265.101    -270.691
  N     -405.866     264.400    -271.979
  C     -406.671     264.083    -272.981
  N     -406.029     264.186    -274.197
  O     -409.781     258.793    -274.302
  O     -411.894     260.198    -273.932
  H     -403.952     262.380    -277.094
  H     -410.119     258.492    -273.438
  H     -401.774     265.380    -274.890
  H     -407.691     263.743    -272.885
  H     -406.597     264.494    -276.157
  H     -405.183     261.927    -275.198
  H     -406.185     260.715    -276.916
  H     -408.527     262.434    -277.146
  H     -408.578     259.998    -276.531
  H     -402.177     265.222    -270.402
  H     -403.859     264.803    -270.054
  H     -407.963     260.415    -274.901
  P     -406.933     261.370    -279.421
  C     -404.847     259.850    -279.812
  O     -406.205     259.934    -279.348
  O     -406.336     262.038    -280.751
  O     -408.425     261.326    -279.464
  H     -407.060     262.282    -281.362
  H     -404.495     258.845    -279.705
  H     -404.231     260.507    -279.234
  H     -404.804     260.135    -280.842

 6  7  8  9  10  11  12  13  14  15  25  28  32  33  34  35 0
 6-311+G(2d,p)
 ****
 36  39  40 0
 6-311+G(2d,p)
 ****
 1  2  3  4  5  16  17  18  19  20  21  22  23  24 0
 3-21G
 ****
 26  27  29  30  31  37  38  41  42  43  44  45  46  47  48 0
 3-21G
 ****


