%nproc=1
%NoSave
%Mem=1900MB
#P OB98/GEN NMR

erre ene a

0 1
  C     -397.849     -43.198     399.682
  O     -396.952     -42.110     399.927
  P     -397.553     -40.855     400.729
  C     -396.561     -39.047     399.136
  O     -396.595     -39.586     400.452
  C     -396.198     -37.564     399.199
  O     -394.800     -37.358     399.484
  C     -396.443     -36.832     397.881
  O     -397.830     -36.595     397.676
  C     -395.602     -35.569     398.097
  O     -396.323     -34.630     398.920
  C     -394.390     -36.119     398.865
  N     -389.676     -34.527     397.683
  C     -390.573     -34.077     398.585
  N     -391.808     -34.558     398.845
  C     -392.087     -35.614     398.047
  C     -391.269     -36.188     397.094
  C     -390.005     -35.590     396.916
  N     -389.084     -36.049     395.989
  N     -391.888     -37.258     396.490
  C     -393.078     -37.315     397.055
  N     -393.236     -36.351     398.018
  O     -397.262     -41.219     402.262
  O     -399.005     -40.617     400.472
  H     -395.680     -33.946     399.216
  H     -398.096     -41.450     402.704
  H     -390.267     -33.221     399.174
  H     -393.850     -38.035     396.810
  H     -394.078     -35.439     399.661
  H     -395.354     -35.058     397.155
  H     -396.036     -37.405     397.038
  H     -396.793     -37.092     399.999
  H     -397.529     -39.171     398.648
  H     -388.235     -35.512     395.870
  H     -389.353     -36.783     395.352
  H     -395.827     -39.607     398.555
  P     -398.400     -36.726     396.178
  C     -399.493     -34.403     396.269
  O     -399.720     -35.803     396.188
  O     -399.002     -38.202     396.188
  O     -397.402     -36.437     395.100
  H     -399.528     -38.379     397.006
  H     -400.464     -33.900     396.233
  H     -398.889     -34.069     395.421
  H     -398.992     -34.154     397.203
  H     -397.337     -43.968     399.144
  H     -398.680     -42.852     399.104
  H     -398.201     -43.587     400.615

 3  4  5  6  7  8  9  10  11  12  22  25  29  30  31  32 0
 6-311+G(2d,p)
 ****
 33  36  37 0
 6-311+G(2d,p)
 ****
 1  2  13  14  15  16  17  18  19  20  21  23  24  26 0
 3-21G
 ****
 27  28  34  35  38  39  40  41  42  43  44  45  46  47  48 0
 3-21G
 ****


