%nproc=1
%NoSave
%Mem=1900MB
#P OB98/GEN NMR

erre ene a

0 1
  C     -899.330    -562.464    -354.317
  O     -898.530    -563.182    -355.266
  P     -897.450    -562.379    -356.121
  C     -895.720    -564.267    -355.799
  O     -896.380    -563.418    -356.712
  C     -894.760    -565.220    -356.495
  O     -895.500    -566.036    -357.446
  C     -893.660    -564.539    -357.312
  O     -892.420    -564.209    -356.656
  C     -893.340    -565.616    -358.356
  O     -892.390    -566.569    -357.783
  C     -894.660    -566.297    -358.611
  N     -895.790    -567.460    -363.457
  C     -895.130    -568.132    -362.502
  N     -894.870    -567.765    -361.233
  C     -895.410    -566.556    -360.987
  C     -896.100    -565.743    -361.875
  C     -896.290    -566.229    -363.161
  N     -896.970    -565.545    -364.140
  N     -896.470    -564.536    -361.250
  C     -895.980    -564.636    -360.050
  N     -895.330    -565.833    -359.820
  O     -896.870    -561.160    -355.474
  O     -898.290    -561.974    -357.430
  H     -891.590    -566.079    -357.612
  H     -898.020    -561.069    -357.714
  H     -894.760    -569.110    -362.783
  H     -896.060    -563.838    -359.277
  H     -894.580    -567.389    -358.702
  H     -892.850    -565.211    -359.235
  H     -894.040    -563.641    -357.822
  H     -894.300    -565.906    -355.766
  H     -896.470    -564.839    -355.236
  H     -897.020    -565.954    -365.063
  H     -897.280    -564.599    -363.958
  H     -895.230    -563.623    -355.049
  P     -892.150    -562.719    -356.122
  C     -890.760    -563.050    -353.893
  O     -890.770    -562.840    -355.306
  O     -893.260    -562.087    -355.361
  O     -891.710    -561.947    -357.437
  H     -890.860    -562.215    -357.816
  H     -889.740    -563.304    -353.577
  H     -891.440    -563.859    -353.626
  H     -891.080    -562.112    -353.391
  H     -900.000    -563.142    -353.830
  H     -899.893    -561.709    -354.824
  H     -898.694    -562.006    -353.589

 3  4  5  6  7  8  9  10  11  12  22  25  29  30  31  32 0
 6-311+G(2d,p)
 ****
 33  36  37 0
 6-311+G(2d,p)
 ****
 1  2  13  14  15  16  17  18  19  20  21  23  24  26 0
 3-21G
 ****
 27  28  34  35  38  39  40  41  42  43  44  45  46  47  48 0
 3-21G
 ****


