%nproc=1
%NoSave
%Mem=1900MB
#P OB98/GEN NMR

erre ene a

0 1
  C     -357.057    -505.983     214.209
  O     -356.200    -505.582     215.277
  P     -356.669    -504.797     216.587
  C     -355.125    -502.823     217.363
  O     -355.361    -504.219     217.322
  C     -353.715    -502.451     217.858
  O     -353.451    -503.129     219.114
  C     -352.660    -502.974     216.860
  O     -352.336    -502.205     215.710
  C     -351.467    -503.334     217.729
  O     -350.511    -502.262     217.823
  C     -352.088    -503.607     219.093
  N     -349.764    -507.339     221.742
  C     -349.403    -506.008     221.599
  N     -348.245    -505.632     222.189
  N     -350.101    -505.150     220.904
  C     -351.194    -505.674     220.296
  C     -351.641    -506.979     220.342
  C     -350.895    -507.910     221.145
  O     -351.182    -509.097     221.325
  N     -352.765    -507.146     219.589
  C     -352.977    -505.949     219.048
  N     -352.040    -505.017     219.457
  O     -357.675    -505.509     217.434
  O     -357.385    -503.474     215.979
  H     -349.984    -502.264     217.005
  H     -358.103    -503.249     216.604
  H     -349.204    -507.961     222.289
  H     -353.782    -505.716     218.366
  H     -351.562    -503.064     219.901
  H     -350.922    -504.179     217.309
  H     -347.612    -506.275     222.625
  H     -353.026    -503.932     216.459
  H     -347.864    -504.729     221.907
  H     -353.629    -501.375     218.058
  H     -355.888    -502.381     218.037
  H     -355.303    -502.376     216.383
  P     -352.940    -502.394     214.245
  C     -350.934    -501.047     213.390
  O     -352.325    -501.248     213.311
  O     -354.489    -501.948     214.402
  O     -352.855    -503.781     213.685
  H     -355.003    -502.259     213.640
  H     -350.700    -500.057     212.957
  H     -350.422    -501.815     212.831
  H     -350.599    -501.055     214.432
  H     -356.483    -506.490     213.462
  H     -357.519    -505.119     213.779
  H     -357.812    -506.641     214.586

 3  4  5  6  7  8  9  10  11  12  23  26  30  31 0
 6-311+G(2d,p)
 ****
 33  35  36  37  38 0
 6-311+G(2d,p)
 ****
 1  2  13  14  15  16  17  18  19  20  21  22  24  25 0
 3-21G
 ****
 27  28  29  32  34  39  40  41  42  43  44  45  46  47  48  49 0
 3-21G
 ****


