%nproc=1
%NoSave
%Mem=1900MB
#P OB98/GEN NMR

erre ene a

0 1
  C      514.292     485.522    -274.859
  O      513.261     485.639    -275.821
  H      514.497     484.461    -274.700
  H      513.974     485.963    -273.914
  H      515.209     486.005    -275.218
  P      512.827     487.104    -276.319
  C      513.263     486.549    -278.793
  O      512.297     486.938    -277.826
  C      512.627     485.701    -279.891
  O      512.623     484.312    -279.470
  C      511.179     486.094    -280.204
  O      510.963     485.964    -281.612
  C      510.357     485.051    -279.461
  O      509.071     484.844    -280.058
  C      511.265     483.827    -279.533
  N      507.633     481.206    -277.195
  C      507.566     482.015    -278.326
  N      506.352     482.159    -278.900
  N      508.610     482.618    -278.834
  C      509.763     482.369    -278.168
  C      509.953     481.595    -277.051
  C      508.793     480.939    -276.473
  O      508.771     480.231    -275.467
  N      511.260     481.613    -276.642
  C      511.868     482.395    -277.530
  N      510.991     482.888    -278.457
  O      513.864     488.173    -276.141
  O      511.494     487.419    -275.496
  H      508.681     484.048    -279.628
  H      511.689     488.001    -274.737
  H      506.797     480.762    -276.841
  H      512.922     482.644    -277.523
  H      511.147     483.271    -280.483
  H      510.210     485.372    -278.424
  H      505.518     481.713    -278.563
  H      510.932     487.112    -279.885
  H      506.288     482.728    -279.735
  H      513.249     485.767    -280.785
  H      514.047     485.966    -278.283
  H      513.728     487.447    -279.231
  P      509.758     486.779    -282.287
  C      511.127     488.302    -283.857
  O      510.216     487.213    -283.763
  O      509.170     487.880    -281.463
  O      508.675     485.631    -282.588
  H      507.783     486.021    -282.536
  H      511.352     488.491    -284.886
  H      512.028     488.059    -283.334
  H      510.686     489.175    -283.422

 6  7  8  9  10  11  12  13  14  15  26  29  33  34 0
 6-311+G(2d,p)
 ****
 36  38  39  40  41 0
 6-311+G(2d,p)
 ****
 1  2  3  4  5  16  17  18  19  20  21  22  23  24  25 0
 3-21G
 ****
 27  28  30  31  32  35  37  42  43  44  45  46  47 0
 3-21G
 ****
 48  49 0
 3-21G
 ****


