%nproc=1
%NoSave
%Mem=1900MB
#P OB98/GEN NMR

erre ene a

0 1
  C      -26.386     855.150     287.744
  O      -26.903     855.165     289.059
  H      -26.649     854.199     287.274
  H      -25.297     855.241     287.770
  H      -26.814     855.966     287.153
  P      -26.806     856.554     289.856
  C      -28.793     855.772     291.335
  O      -27.473     856.300     291.296
  C      -28.820     854.512     292.199
  O      -28.149     853.422     291.523
  C      -28.140     854.662     293.560
  O      -29.002     855.269     294.509
  C      -27.880     853.206     293.892
  O      -29.106     852.584     294.349
  C      -27.470     852.619     292.541
  N      -23.534     850.115     290.549
  C      -24.868     849.742     290.646
  N      -25.196     848.540     290.145
  N      -25.794     850.497     291.185
  C      -25.315     851.680     291.653
  C      -24.019     852.150     291.619
  C      -23.008     851.316     291.006
  O      -21.822     851.602     290.880
  N      -23.925     853.391     292.183
  C      -25.162     853.675     292.574
  N      -26.038     852.662     292.284
  O      -27.876     857.486     289.116
  O      -25.452     857.193     289.875
  H      -28.877     851.692     294.646
  H      -27.543     858.402     289.095
  H      -22.865     849.496     290.132
  H      -25.457     854.587     293.073
  H      -27.784     851.582     292.406
  H      -27.143     853.083     294.692
  H      -24.529     847.896     289.758
  H      -27.186     855.190     293.467
  H      -26.176     848.275     290.169
  H      -29.869     854.215     292.322
  H      -29.099     855.521     290.317
  H      -29.467     856.522     291.742
  P      -28.325     855.883     295.831
  C      -29.937     857.912     295.924
  O      -29.487     856.728     296.559
  O      -27.350     857.008     295.238
  O      -27.591     854.906     296.679
  H      -26.642     857.208     295.880
  H      -30.704     858.365     296.517
  H      -30.328     857.672     294.957
  H      -29.119     858.593     295.818

 6  7  8  9  10  11  12  13  14  15  26  29  33  34 0
 6-311+G(2d,p)
 ****
 36  38  39  40  41 0
 6-311+G(2d,p)
 ****
 1  2  3  4  5  16  17  18  19  20  21  22  23  24  25 0
 3-21G
 ****
 27  28  30  31  32  35  37  42  43  44  45  46  47 0
 3-21G
 ****
 48  49 0
 3-21G
 ****


