%nproc=1
%NoSave
%Mem=1900MB
#P OB98/GEN NMR

erre ene a

0 1
  C      -60.805     218.188      -7.145
  O      -60.879     216.921      -7.765
  H      -61.495     218.204      -6.298
  H      -61.090     218.977      -7.845
  H      -59.792     218.369      -6.772
  P      -60.041     216.679      -9.109
  C      -59.072     214.367      -8.474
  O      -59.955     215.092      -9.317
  C      -59.444     212.880      -8.444
  O      -60.620     212.706      -7.602
  C      -59.783     212.297      -9.826
  O      -59.422     210.910      -9.805
  C      -61.289     212.459      -9.857
  O      -61.869     211.700     -10.889
  C      -61.639     212.082      -8.415
  N      -62.976     212.505      -8.033
  C      -64.014     211.620      -8.339
  O      -63.776     210.557      -8.912
  N      -65.299     211.977      -8.018
  C      -65.534     213.140      -7.498
  N      -66.831     213.437      -7.217
  C      -64.472     214.127      -7.212
  C      -63.228     213.746      -7.498
  O      -58.735     217.394      -9.198
  O      -61.039     217.142     -10.274
  H      -61.809     210.737     -10.693
  H      -60.759     218.008     -10.622
  H      -64.723     215.092      -6.796
  H      -62.382     214.403      -7.324
  H      -61.560     210.997      -8.264
  H      -61.560     213.502     -10.049
  H      -59.269     212.810     -10.643
  H      -58.628     212.322      -7.969
  H      -67.527     212.735      -7.438
  H      -59.154     214.793      -7.469
  H      -67.136     214.318      -6.831
  H      -58.040     214.482      -8.821
  P      -58.008     210.369     -10.333
  C      -56.483     209.504      -8.441
  O      -57.505     209.183      -9.381
  O      -56.992     211.443     -10.557
  O      -58.338     209.622     -11.713
  H      -57.572     209.701     -12.309
  H      -56.237     208.633      -7.870
  H      -56.831     210.274      -7.785
  H      -55.613     209.846      -8.962

 6  7  8  9  10  11  12  13  14  15  16  26  30  31  32  33  35 0
 6-311+G(2d,p)
 ****
 37  38 0
 6-311+G(2d,p)
 ****
 1  2  3  4  5  17  18  19  20  21  22  23  24  25 0
 3-21G
 ****
 27  28  29  34  36  39  40  41  42  43  44  45  46 0
 3-21G
 ****


