%nproc=1
%NoSave
%Mem=1900MB
#P OB98/GEN NMR

erre ene a

0 1
  C     -124.432      68.110    -350.397
  O     -123.222      68.778    -350.090
  P     -122.254      68.111    -348.998
  C     -123.218      69.467    -346.991
  O     -123.039      68.188    -347.591
  C     -123.922      69.320    -345.642
  O     -125.237      68.748    -345.818
  C     -123.210      68.392    -344.665
  O     -122.141      69.048    -343.995
  C     -124.332      68.075    -343.691
  O     -124.496      69.163    -342.757
  C     -125.548      67.983    -344.623
  N     -128.669      64.094    -343.755
  C     -128.759      65.409    -343.335
  N     -129.795      65.715    -342.522
  N     -127.909      66.337    -343.683
  C     -126.921      65.885    -344.491
  C     -126.731      64.609    -344.978
  C     -127.667      63.585    -344.575
  O     -127.615      62.395    -344.871
  N     -125.621      64.541    -345.784
  C     -125.136      65.771    -345.782
  N     -125.864      66.612    -344.988
  O     -121.088      69.190    -348.822
  O     -121.730      66.755    -349.364
  H     -125.139      68.860    -342.084
  H     -120.312      68.776    -348.393
  H     -129.345      63.412    -343.451
  H     -124.262      66.089    -346.334
  H     -126.441      68.430    -344.173
  H     -124.142      67.177    -343.100
  H     -130.447      65.023    -342.168
  H     -122.880      67.472    -345.157
  H     -129.849      66.651    -342.146
  H     -124.047      70.319    -345.214
  H     -123.825      70.098    -347.653
  H     -122.243      69.945    -346.858
  P     -120.929      68.112    -343.495
  C     -121.880      68.226    -341.081
  O     -121.459      67.412    -342.153
  O     -119.848      69.174    -342.976
  O     -120.376      67.205    -344.546
  H     -118.948      68.797    -343.039
  H     -122.439      67.610    -340.372
  H     -122.520      69.043    -341.429
  H     -121.001      68.635    -340.565
  H     -124.970      68.667    -351.135
  H     -125.027      68.024    -349.512
  H     -124.214      67.133    -350.776

 3  4  5  6  7  8  9  10  11  12  23  26  30  31 0
 6-311+G(2d,p)
 ****
 33  35  36  37  38 0
 6-311+G(2d,p)
 ****
 1  2  13  14  15  16  17  18  19  20  21  22  24  25 0
 3-21G
 ****
 27  28  29  32  34  39  40  41  42  43  44  45  46  47  48  49 0
 3-21G
 ****


