%nproc=1
%NoSave
%Mem=1900MB
#P OB98/GEN NMR

erre ene a

0 1
  C     -113.713    -497.195    -348.667
  O     -113.587    -496.220    -347.653
  H     -112.785    -497.220    -349.246
  H     -114.539    -496.947    -349.336
  H     -113.878    -498.180    -348.221
  P     -114.892    -495.948    -346.754
  C     -115.711    -493.983    -348.265
  O     -115.200    -494.390    -347.001
  C     -116.507    -492.690    -348.117
  O     -117.731    -492.926    -347.383
  C     -115.784    -491.587    -347.345
  O     -114.801    -490.916    -348.113
  C     -116.961    -490.685    -347.016
  O     -117.357    -489.962    -348.197
  C     -118.025    -491.728    -346.615
  N     -118.028    -492.019    -345.180
  C     -118.914    -491.285    -344.388
  O     -119.651    -490.439    -344.890
  N     -118.927    -491.504    -343.031
  C     -118.139    -492.393    -342.508
  N     -118.195    -492.564    -341.162
  C     -117.196    -493.201    -343.305
  C     -117.193    -492.965    -344.618
  O     -114.325    -495.958    -345.258
  O     -116.048    -496.861    -346.987
  H     -117.915    -489.225    -347.894
  H     -115.024    -495.656    -344.630
  H     -116.550    -493.921    -342.825
  H     -116.529    -493.523    -345.270
  H     -119.030    -491.394    -346.902
  H     -116.736    -489.945    -346.251
  H     -115.355    -491.965    -346.408
  H     -116.792    -492.352    -349.123
  H     -118.810    -491.956    -340.633
  H     -116.360    -494.782    -348.645
  H     -117.521    -493.117    -340.647
  H     -114.890    -493.826    -348.971
  P     -113.261    -491.257    -347.800
  C     -113.062    -489.332    -346.057
  O     -112.588    -489.901    -347.272
  O     -112.626    -491.444    -349.256
  O     -113.048    -492.458    -346.935
  H     -111.925    -492.127    -349.244
  H     -112.515    -488.438    -345.845
  H     -112.926    -490.031    -345.259
  H     -114.102    -489.099    -346.154

 6  7  8  9  10  11  12  13  14  15  16  26  30  31  32  33  35 0
 6-311+G(2d,p)
 ****
 37  38 0
 6-311+G(2d,p)
 ****
 1  2  3  4  5  17  18  19  20  21  22  23  24  25 0
 3-21G
 ****
 27  28  29  34  36  39  40  41  42  43  44  45  46 0
 3-21G
 ****


