%nproc=1
%NoSave
%Mem=1900MB
#P OB98/GEN NMR

erre ene a

0 1
  C     -441.200    -375.296     191.872
  O     -441.991    -376.113     191.039
  H     -441.474    -375.446     192.918
  H     -440.149    -375.571     191.742
  H     -441.328    -374.242     191.598
  P     -443.579    -375.864     191.068
  C     -444.372    -377.700     192.736
  O     -444.061    -376.328     192.531
  C     -445.602    -377.820     193.629
  O     -445.241    -377.580     195.006
  C     -446.710    -376.829     193.315
  O     -447.517    -377.244     192.225
  C     -447.498    -376.860     194.622
  O     -448.304    -378.050     194.671
  C     -446.369    -376.935     195.653
  N     -446.614    -373.649     199.578
  C     -447.163    -374.869     199.391
  N     -447.051    -375.679     198.307
  C     -446.288    -375.111     197.366
  C     -445.656    -373.877     197.419
  C     -445.846    -373.124     198.604
  N     -445.303    -371.875     198.797
  N     -444.978    -373.614     196.248
  C     -445.160    -374.697     195.519
  N     -445.945    -375.624     196.146
  O     -444.161    -377.008     190.119
  O     -444.025    -374.497     190.664
  H     -448.629    -378.135     195.585
  H     -445.053    -376.767     189.807
  H     -447.776    -375.250     200.202
  H     -444.737    -374.856     194.530
  H     -446.639    -377.530     196.523
  H     -448.169    -376.003     194.738
  H     -446.314    -375.816     193.158
  H     -445.974    -378.852     193.558
  H     -443.524    -378.195     193.217
  H     -445.642    -371.353     199.587
  H     -444.855    -371.414     198.016
  H     -444.565    -378.172     191.766
  P     -448.176    -376.089     191.320
  C     -450.487    -377.220     191.782
  O     -449.715    -376.012     191.758
  O     -448.237    -376.767     189.866
  O     -447.432    -374.796     191.312
  H     -448.218    -376.086     189.166
  H     -451.486    -376.998     192.093
  H     -450.045    -377.912     192.468
  H     -450.506    -377.651     190.803

 6  7  8  9  10  11  12  13  14  15  25  28  32  33  34  35 0
 6-311+G(2d,p)
 ****
 36  39  40 0
 6-311+G(2d,p)
 ****
 1  2  3  4  5  16  17  18  19  20  21  22  23  24 0
 3-21G
 ****
 26  27  29  30  31  37  38  41  42  43  44  45  46  47 0
 3-21G
 ****
 48 0
 3-21G
 ****


