%nproc=1
%NoSave
%Mem=1900MB
#P OB98/GEN NMR

erre ene a

0 1
  C      -27.014     702.715     267.013
  O      -25.750     702.556     267.621
  P      -24.684     703.745     267.436
  C      -24.956     704.991     269.709
  O      -24.158     704.133     268.897
  C      -24.717     704.684     271.184
  O      -25.203     703.369     271.506
  C      -23.254     704.694     271.608
  O      -22.762     706.021     271.720
  C      -23.338     703.931     272.923
  O      -23.813     704.799     273.965
  C      -24.395     702.859     272.606
  N      -25.252     697.846     272.025
  C      -26.035     698.848     272.472
  N      -25.730     700.157     272.618
  C      -24.465     700.388     272.242
  C      -23.538     699.466     271.785
  C      -23.975     698.136     271.678
  N      -23.167     697.115     271.227
  N      -22.329     700.075     271.514
  C      -22.530     701.349     271.789
  N      -23.806     701.589     272.216
  O      -25.600     704.991     267.026
  O      -23.616     703.475     266.421
  H      -23.886     704.262     274.780
  H      -25.133     705.576     266.400
  H      -27.048     698.565     272.755
  H      -21.783     702.125     271.692
  H      -25.066     702.670     273.449
  H      -22.375     703.526     273.247
  H      -22.645     704.137     270.887
  H      -25.288     705.417     271.778
  H      -26.014     704.824     269.477
  H      -23.510     696.172     271.322
  H      -22.177     697.311     271.099
  H      -24.711     706.030     269.477
  P      -21.196     706.202     272.030
  C      -20.550     706.302     269.546
  O      -20.645     707.023     270.761
  O      -20.643     704.722     271.759
  O      -20.884     706.784     273.363
  H      -20.955     704.366     270.918
  H      -20.216     706.980     268.762
  H      -21.522     705.888     269.275
  H      -19.815     705.493     269.647
  H      -27.618     701.855     267.216
  H      -26.890     702.822     265.956
  H      -27.492     703.588     267.407

 3  4  5  6  7  8  9  10  11  12  22  25  29  30  31  32 0
 6-311+G(2d,p)
 ****
 33  36  37 0
 6-311+G(2d,p)
 ****
 1  2  13  14  15  16  17  18  19  20  21  23  24  26 0
 3-21G
 ****
 27  28  34  35  38  39  40  41  42  43  44  45  46  47  48 0
 3-21G
 ****


