%nproc=1
%NoSave
%Mem=1900MB
#P OB98/GEN NMR

erre ene a

0 1
  C      125.796    -336.006     -33.391
  O      126.641    -335.670     -34.472
  H      125.568    -335.095     -32.833
  H      126.307    -336.710     -32.730
  H      124.858    -336.448     -33.741
  P      126.774    -336.698     -35.693
  C      128.197    -338.838     -35.959
  O      127.339    -338.084     -35.108
  C      128.270    -340.306     -35.540
  O      126.953    -340.804     -35.232
  C      128.815    -341.200     -36.656
  O      130.223    -341.267     -36.748
  C      128.227    -342.558     -36.279
  O      129.065    -343.231     -35.325
  C      126.882    -342.183     -35.642
  N      122.834    -345.028     -36.920
  C      123.776    -345.248     -35.938
  N      123.656    -346.406     -35.245
  N      124.756    -344.422     -35.676
  C      124.803    -343.356     -36.506
  C      123.935    -343.038     -37.528
  C      122.823    -343.932     -37.772
  O      121.962    -343.785     -38.641
  N      124.301    -341.869     -38.157
  C      125.430    -341.529     -37.568
  N      125.763    -342.384     -36.544
  O      128.028    -336.138     -36.520
  O      125.561    -336.818     -36.564
  H      128.562    -343.982     -34.954
  H      127.952    -336.401     -37.457
  H      122.086    -345.684     -37.061
  H      126.031    -340.661     -37.826
  H      126.686    -342.773     -34.743
  H      128.143    -343.218     -37.147
  H      122.995    -347.124     -35.491
  H      128.395    -340.901     -37.624
  H      124.465    -346.727     -34.714
  H      128.871    -340.391     -34.624
  H      129.184    -338.376     -35.892
  H      127.869    -338.751     -37.002
  P      130.934    -341.328     -38.184
  C      130.900    -343.038     -40.146
  O      130.679    -342.796     -38.772
  O      132.490    -341.328     -37.810
  O      130.584    -340.206     -39.100
  H      132.854    -340.426     -37.867
  H      130.683    -344.062     -40.367
  H      131.922    -342.830     -40.385
  H      130.262    -342.405     -40.727

 6  7  8  9  10  11  12  13  14  15  26  29  33  34 0
 6-311+G(2d,p)
 ****
 36  38  39  40  41 0
 6-311+G(2d,p)
 ****
 1  2  3  4  5  16  17  18  19  20  21  22  23  24  25 0
 3-21G
 ****
 27  28  30  31  32  35  37  42  43  44  45  46  47 0
 3-21G
 ****
 48  49 0
 3-21G
 ****


