%nproc=1
%NoSave
%Mem=1900MB
#P OB98/GEN NMR

erre ene a

0 1
  C      -65.183     -64.120     -86.420
  O      -65.592     -63.188     -85.439
  H      -64.760     -64.995     -85.919
  H      -64.417     -63.678     -87.062
  H      -66.038     -64.437     -87.023
  P      -66.285     -61.841     -85.969
  C      -68.476     -62.997     -85.179
  O      -67.842     -62.181     -86.156
  C      -69.978     -63.046     -85.443
  O      -70.619     -63.850     -84.426
  C      -70.668     -61.689     -85.388
  O      -70.482     -60.950     -86.583
  C      -72.114     -62.101     -85.149
  O      -72.773     -62.450     -86.373
  C      -71.963     -63.345     -84.263
  N      -75.623     -62.824     -80.756
  C      -75.664     -63.183     -82.058
  N      -74.636     -63.317     -82.922
  C      -73.470     -63.046     -82.313
  C      -73.273     -62.662     -80.998
  C      -74.421     -62.555     -80.196
  N      -74.383     -62.156     -78.881
  N      -71.934     -62.428     -80.756
  C      -71.332     -62.676     -81.902
  N      -72.220     -63.057     -82.868
  O      -65.739     -61.726     -87.471
  O      -65.990     -60.617     -85.170
  H      -73.632     -62.842     -86.126
  H      -64.953     -61.149     -87.489
  H      -76.654     -63.385     -82.459
  H      -70.267     -62.586     -82.082
  H      -72.648     -64.149     -84.559
  H      -72.687     -61.294     -84.691
  H      -70.314     -61.118     -84.521
  H      -70.145     -63.529     -86.414
  H      -68.299     -62.574     -84.184
  H      -68.043     -64.002     -85.221
  H      -75.249     -62.079     -78.373
  H      -73.504     -61.850     -78.486
  P      -70.722     -59.368     -86.550
  C      -68.178     -58.957     -86.199
  O      -69.499     -58.707     -85.747
  O      -71.962     -59.206     -85.552
  O      -70.990     -58.749     -87.880
  H      -72.789     -59.080     -86.054
  H      -67.482     -58.451     -85.564
  H      -68.071     -58.600     -87.202
  H      -67.985     -60.009     -86.172

 6  7  8  9  10  11  12  13  14  15  25  28  32  33  34  35 0
 6-311+G(2d,p)
 ****
 36  37  40 0
 6-311+G(2d,p)
 ****
 1  2  3  4  5  16  17  18  19  20  21  22  23  24 0
 3-21G
 ****
 26  27  29  30  31  38  39 41  42  43  44  45  46  47  48 0
 3-21G
 ****


