%nproc=1
%NoSave
%Mem=1900MB
#P OB98/GEN NMR

erre ene a

0 1
  C     -756.306     -76.960     227.916
  O     -757.600     -76.792     228.479
  P     -757.997     -75.331     229.012
  C     -760.268     -75.393     227.764
  O     -759.598     -75.262     229.022
  C     -761.432     -74.413     227.672
  O     -762.474     -74.828     228.603
  C     -761.074     -72.959     227.987
  O     -761.712     -72.094     227.030
  C     -761.740     -72.709     229.335
  O     -762.028     -71.336     229.544
  C     -762.968     -73.615     229.208
  N     -767.248     -75.390     231.222
  C     -766.778     -75.487     229.924
  N     -767.596     -76.087     229.028
  N     -765.618     -75.020     229.541
  C     -764.896     -74.475     230.550
  C     -765.252     -74.338     231.871
  C     -766.565     -74.796     232.272
  O     -767.076     -74.654     233.381
  N     -764.238     -73.746     232.602
  C     -763.282     -73.525     231.719
  N     -763.652     -73.905     230.453
  O     -757.584     -74.381     227.789
  O     -757.322     -74.901     230.276
  H     -762.507     -71.016     228.757
  H     -756.961     -73.686     228.099
  H     -768.161     -75.751     231.459
  H     -762.329     -73.070     231.932
  H     -763.703     -73.167     228.525
  H     -761.069     -73.054     230.127
  H     -768.492     -76.492     229.260
  H     -759.998     -72.755     228.010
  H     -767.261     -76.188     228.075
  H     -761.870     -74.493     226.662
  H     -760.636     -76.418     227.664
  H     -759.538     -75.192     226.964
  P     -760.742     -71.059     226.264
  C     -761.449     -71.199     223.762
  O     -761.578     -70.532     225.000
  O     -759.627     -72.023     225.608
  O     -760.140     -70.016     227.150
  H     -758.800     -71.525     225.454
  H     -760.874     -72.135     223.848
  H     -760.931     -70.542     223.057
  H     -762.443     -71.415     223.368
  H     -756.181     -77.976     227.606
  H     -755.564     -76.717     228.648
  H     -756.198     -76.313     227.070

 3  4  5  6  7  8  9  10  11  12  23  26  30  31  33  0
 6-311+G(2d,p)
 ****
 35  36  37  38 0
 6-311+G(2d,p)
 ****
 1  2  13  14  15  16  17  18  19  20  21  22  24  25  27  28  29 0
 3-21G
 ****
 32  34  39  40  41  42  43  44  45  46  47  48  49 0
 3-21G
 ****


