%nproc=1
%NoSave
%Mem=1900MB
#P OB98/GEN NMR

erre ene a

0 1
  C      109.896     -58.257    -224.015
  O      109.107     -58.655    -222.911
  H      109.457     -57.357    -224.454
  H      109.897     -59.050    -224.771
  H      110.921     -58.034    -223.704
  P      109.744     -59.751    -221.925
  C      108.691     -61.650    -223.353
  O      109.872     -61.109    -222.775
  C      108.656     -63.160    -223.170
  O      109.787     -63.780    -223.824
  C      108.699     -63.619    -221.709
  O      107.410     -63.587    -221.111
  C      109.190     -65.047    -221.876
  O      108.099     -65.885    -222.324
  C      110.224     -64.900    -223.004
  N      114.758     -66.976    -222.055
  C      113.577     -67.572    -222.453
  N      113.602     -68.914    -222.617
  N      112.465     -66.916    -222.674
  C      112.580     -65.585    -222.445
  C      113.692     -64.881    -222.043
  C      114.916     -65.615    -221.816
  O      115.992     -65.132    -221.476
  N      113.427     -63.538    -221.915
  C      112.148     -63.438    -222.225
  N      111.587     -64.652    -222.551
  O      108.539     -60.049    -220.906
  O      110.975     -59.318    -221.197
  H      108.464     -66.778    -222.470
  H      108.712     -59.583    -220.068
  H      115.580     -67.532    -221.891
  H      111.583     -62.517    -222.238
  H      110.263     -65.787    -223.654
  H      109.560     -65.480    -220.947
  H      114.416     -69.485    -222.445
  H      109.435     -63.043    -221.129
  H      112.749     -69.372    -222.911
  H      107.748     -63.544    -223.664
  H      108.675     -61.412    -224.428
  H      107.816     -61.193    -222.875
  P      107.294     -63.109    -219.583
  C      106.398     -65.404    -218.775
  O      107.420     -64.422    -218.668
  O      105.752     -62.707    -219.457
  O      108.185     -61.969    -219.202
  H      105.668     -61.737    -219.349
  H      106.613     -66.216    -218.112
  H      106.355     -65.766    -219.781
  H      105.456     -64.969    -218.513

 6  7  8  9  10  11  12  13  14  15  26  29  33  34 0
 6-311+G(2d,p)
 ****
 36  38  39  40  41 0
 6-311+G(2d,p)
 ****
 1  2  3  4  5  16  17  18  19  20  21  22  23  24  25 0
 3-21G
 ****
 27  28  30  31  32  35  37  42  43  44  45  46  47 0
 3-21G
 ****
 48  49 0
 3-21G
 ****


