%nproc=1
%NoSave
%Mem=1900MB
#P OB98/GEN NMR

erre ene a

0 1
  C      281.879     225.835     156.857
  O      283.267     225.960     156.615
  H      281.456     225.138     156.131
  H      281.392     226.806     156.734
  H      281.697     225.453     157.866
  P      284.136     226.754     157.702
  C      285.799     224.906     158.465
  O      285.596     226.083     157.698
  C      286.931     224.075     157.863
  O      286.418     223.373     156.695
  C      288.137     224.907     157.406
  O      289.328     224.151     157.653
  C      287.926     225.022     155.906
  O      289.116     225.279     155.173
  C      287.308     223.655     155.596
  N      286.593     223.637     154.319
  C      287.074     222.787     153.328
  O      288.000     221.991     153.473
  N      286.438     222.877     152.115
  C      285.416     223.726     151.801
  O      284.904     223.771     150.689
  C      284.960     224.606     152.887
  C      285.561     224.524     154.075
  O      283.508     226.267     159.090
  O      284.136     228.240     157.564
  H      282.773     226.851     159.357
  H      288.882     225.279     154.221
  H      286.772     222.267     151.385
  H      284.160     225.300     152.669
  H      285.264     225.173     154.892
  H      288.082     222.877     155.594
  H      287.215     225.828     155.690
  H      288.214     225.887     157.887
  H      287.234     223.311     158.588
  H      284.880     224.310     158.465
  H      286.037     225.186     159.497
  P      290.713     224.959     157.729
  C      291.277     224.188     160.170
  O      291.616     224.165     158.789
  O      290.257     226.279     158.505
  O      291.329     225.189     156.391
  H      289.570     226.111     159.171
  H      291.987     223.607     160.721
  H      290.299     223.776     160.304
  H      291.290     225.198     160.524

 6  7  8  9  10  11  12  13  14  15  16  27  31  32  33  34  35 0
 6-311+G(2d,p)
 ****
 36  37 0
 6-311+G(2d,p)
 ****
 1  2  3  4  5  17  18  19  20  21  22  23  24  25 0
 3-21G
 ****
 26  28  29  30  38  39  40  41  42  43  44  45 0
 3-21G
 ****


