%nproc=1
%NoSave
%Mem=1900MB
#P OB98/GEN NMR

erre ene a

0 1
  C     -258.614     372.607     151.961
  O     -258.210     371.251     152.011
  H     -258.922     372.919     152.964
  H     -259.459     372.736     151.280
  H     -257.778     373.235     151.642
  P     -257.978     370.480     150.624
  C     -255.696     371.679     150.670
  O     -256.811     371.295     149.872
  C     -254.536     372.165     149.798
  O     -253.417     372.567     150.619
  C     -253.975     371.108     148.860
  O     -254.853     370.700     147.840
  C     -252.624     371.703     148.493
  O     -252.723     372.666     147.443
  C     -252.224     372.403     149.817
  N     -251.186     371.671     150.536
  C     -249.924     371.674     149.951
  O     -249.670     372.229     148.881
  N     -248.958     370.983     150.629
  C     -249.135     370.266     151.773
  O     -248.225     369.651     152.322
  C     -250.499     370.269     152.324
  C     -251.446     370.963     151.690
  O     -259.206     370.269     149.787
  O     -257.252     369.122     151.056
  H     -251.834     373.058     147.333
  H     -257.275     368.455     150.327
  H     -248.030     370.986     150.229
  H     -250.680     369.705     153.227
  H     -252.466     370.983     152.080
  H     -251.848     373.414     149.612
  H     -251.915     370.941     148.167
  H     -253.764     370.205     149.452
  H     -254.873     373.050     149.245
  H     -255.375     370.799     151.240
  H     -256.000     372.465     151.370
  P     -254.381     369.965     146.504
  C     -255.141     367.691     147.547
  O     -254.145     368.414     146.834
  O     -253.359     370.669     145.677
  O     -255.755     369.920     145.656
  H     -255.514     370.010     144.710
  H     -254.821     366.678     147.679
  H     -256.057     367.707     146.995
  H     -255.294     368.144     148.504

 6  7  8  9  10  11  12  13  14  15  16  26  31  32  33  34  35 0
 6-311+G(2d,p)
 ****
 36  37 0
 6-311+G(2d,p)
 ****
 1  2  3  4  5  17  18  19  20  21  22  23  24  25 0
 3-21G
 ****
 27  28  29  30  38  39  40  41  42  43  44  45 0
 3-21G
 ****


