%nproc=1
%NoSave
%Mem=1900MB
#P OB98/GEN NMR

erre ene a

0 1
  C      -90.122     148.617    -123.701
  O      -89.156     149.648    -123.729
  H      -90.444     148.431    -122.673
  H      -90.988     148.931    -124.289
  H      -89.713     147.701    -124.136
  P      -87.786     149.368    -122.943
  C      -87.213     147.379    -124.507
  O      -87.445     147.818    -123.178
  C      -86.628     145.971    -124.501
  O      -86.576     145.449    -125.845
  C      -85.203     145.875    -123.967
  O      -85.170     145.881    -122.548
  C      -84.780     144.526    -124.530
  O      -85.327     143.469    -123.719
  C      -85.452     144.532    -125.911
  N      -82.765     142.982    -129.979
  C      -83.615     142.329    -129.159
  N      -84.310     142.814    -128.108
  C      -84.071     144.125    -127.951
  C      -83.249     144.931    -128.718
  C      -82.568     144.308    -129.777
  N      -81.646     144.974    -130.569
  N      -83.246     146.228    -128.239
  C      -84.038     146.196    -127.188
  N      -84.565     144.952    -126.978
  O      -88.239     149.432    -121.406
  O      -86.680     150.326    -123.234
  H      -85.253     142.648    -124.243
  H      -88.044     150.320    -121.052
  H      -83.754     141.273    -129.370
  H      -84.254     147.044    -126.552
  H      -85.854     143.549    -126.180
  H      -83.696     144.391    -124.551
  H      -84.561     146.656    -124.390
  H      -87.304     145.328    -123.923
  H      -86.510     148.061    -124.999
  H      -80.919     144.369    -130.940
  H      -81.351     145.870    -130.203
  H      -88.162     147.394    -125.051
  P      -83.845     146.436    -121.836
  C      -85.063     148.585    -121.072
  O      -83.978     148.036    -121.807
  O      -82.711     146.168    -122.932
  O      -83.503     145.791    -120.537
  H      -81.996     145.627    -122.544
  H      -85.033     149.653    -121.136
  H      -84.987     148.286    -120.047
  H      -85.986     148.229    -121.480

 6  7  8  9  10  11  12  13  14  15  25  28  32  33  34  35 0
 6-311+G(2d,p)
 ****
 36  39  40 0
 6-311+G(2d,p)
 ****
 1  2  3  4  5  16  17  18  19  20  21  22  23  24 0
 3-21G
 ****
 26  27  29  30  31  37  38  41  42  43  44  45  46  47  48 0
 3-21G
 ****


