%nproc=1
%NoSave
%Mem=1900MB
#P OB98/GEN NMR

erre ene a

0 1
  C      155.799     279.662    1803.005
  O      156.965     279.609    1802.159
  P      157.625     280.911    1801.498
  C      160.114     280.697    1802.161
  O      158.883     281.359    1802.390
  C      161.279     281.341    1802.985
  O      161.409     282.737    1802.638
  C      161.059     281.315    1804.496
  O      161.300     279.997    1805.005
  C      162.059     282.374    1804.937
  O      163.396     281.856    1805.003
  C      161.954     283.418    1803.803
  N      161.124     284.561    1804.170
  C      161.774     285.585    1804.901
  O      162.940     285.442    1805.258
  N      161.036     286.704    1805.225
  C      159.798     286.775    1804.899
  N      159.119     287.905    1805.246
  C      159.051     285.688    1804.212
  C      159.775     284.642    1803.851
  O      156.637     282.020    1801.206
  O      158.316     280.405    1800.135
  H      163.954     282.626    1805.270
  H      158.294     281.136    1799.496
  H      157.991     285.777    1804.001
  H      159.332     283.798    1803.338
  H      162.943     283.765    1803.491
  H      161.807     282.786    1805.940
  H      160.020     281.638    1804.744
  H      162.208     280.830    1802.701
  H      159.660     288.630    1805.731
  H      160.351     280.787    1801.102
  H      158.137     288.087    1805.046
  H      160.014     279.645    1802.410
  P      160.529     279.476    1806.313
  C      159.432     277.398    1805.253
  O      159.221     278.708    1805.814
  O      160.290     280.535    1807.357
  O      161.467     278.321    1806.885
  H      161.371     278.299    1807.854
  H      158.494     276.836    1805.342
  H      160.237     276.897    1805.779
  H      159.693     277.522    1804.192
  H      155.546     278.673    1803.326
  H      154.980     280.080    1802.458
  H      156.006     280.272    1803.859

 3  4  5  6  7  8  9  10  11  12  13  23  27  28  29  30  32 0
 6-311+G(2d,p)
 ****
 34  35 0
 6-311+G(2d,p)
 ****
 1  2  14  15  16  17  18  19  20  21  22  24  25  26 0
 3-21G
 ****
 31  33  36  37  38  39  40  41  42  43  44  45  46 0
 3-21G
 ****


