%nproc=1
%NoSave
%Mem=1900MB
#P OB98/GEN NMR

erre ene a

0 1
  C       47.333      27.069    -125.435
  O       46.105      27.703    -125.151
  P       44.706      27.017    -125.520
  C       43.469      26.347    -127.682
  O       44.617      26.981    -127.127
  C       43.661      26.122    -129.186
  O       44.747      25.164    -129.380
  C       42.400      25.553    -129.870
  O       41.966      26.289    -131.017
  C       42.784      24.104    -130.133
  O       42.022      23.481    -131.146
  C       44.295      24.223    -130.374
  N       44.980      22.936    -130.279
  C       45.061      22.173    -131.441
  O       44.607      22.514    -132.531
  N       45.640      20.940    -131.309
  C       46.031      20.360    -130.139
  O       46.451      19.212    -130.080
  C       45.883      21.200    -128.938
  C       45.396      22.436    -129.060
  O       43.509      27.604    -124.853
  O       44.957      25.473    -125.169
  H       42.243      23.909    -131.996
  H       45.687      25.054    -125.661
  H       45.705      20.376    -132.142
  H       46.176      20.761    -127.994
  H       45.276      23.078    -128.194
  H       44.508      24.657    -131.353
  H       42.608      23.539    -129.207
  H       41.537      25.583    -129.194
  H       43.955      27.076    -129.631
  H       42.600      26.990    -127.523
  H       43.279      25.403    -127.159
  P       40.450      26.402    -131.517
  C       38.709      24.756    -132.529
  O       40.068      25.040    -132.264
  O       40.119      27.649    -132.268
  O       39.602      26.322    -130.159
  H       38.769      26.816    -130.266
  H       38.577      23.670    -132.550
  H       38.442      25.160    -133.511
  H       38.051      25.181    -131.766
  H       48.140      27.692    -125.110
  H       47.413      26.902    -126.489
  H       47.378      26.131    -124.921

 3  4  5  6  7  8  9  10  11  12  13  23  28  29  30  31  32 0
 6-311+G(2d,p)
 ****
 33  34 0
 6-311+G(2d,p)
 ****
 1  2  14  15  16  17  18  19  20  21  22  24  25  26  27 0
 3-21G
 ****
 35  36  37  38  39  40  41  42  43  44  45 0
 3-21G
 ****


