%nproc=1
%NoSave
%Mem=1900MB
#P OB98/GEN NMR

erre ene a

0 1
  C      -41.623     145.103     -51.534
  O      -40.567     144.561     -52.337
  P      -39.203     144.150     -51.607
  C      -39.219     141.597     -52.103
  O      -38.612     142.857     -52.347
  C      -39.264     140.771     -53.391
  O      -40.352     141.178     -54.251
  C      -38.002     140.885     -54.235
  O      -36.980     140.011     -53.776
  C      -38.511     140.418     -55.589
  O      -38.567     138.977     -55.621
  C      -39.924     141.010     -55.625
  N      -42.227     143.610     -59.302
  C      -42.432     142.317     -58.864
  N      -43.400     141.615     -59.494
  N      -41.752     141.761     -57.896
  C      -40.831     142.587     -57.347
  C      -40.533     143.884     -57.694
  C      -41.283     144.483     -58.776
  O      -41.135     145.618     -59.216
  N      -39.531     144.393     -56.911
  C      -39.235     143.414     -56.079
  N      -39.985     142.289     -56.314
  O      -39.712     143.555     -50.210
  O      -38.247     145.279     -51.410
  H      -38.797     138.727     -56.536
  H      -39.024     143.674     -49.529
  H      -42.777     143.986     -60.055
  H      -38.491     143.470     -55.295
  H      -40.645     140.345     -56.116
  H      -37.857     140.726     -56.410
  H      -43.995     141.996     -60.212
  H      -37.659     141.925     -54.299
  H      -43.587     140.676     -59.164
  H      -39.416     139.718     -53.115
  H      -40.232     141.731     -51.713
  H      -38.664     141.082     -51.315
  P      -35.483     140.275     -54.286
  C      -34.615     140.952     -51.935
  O      -34.536     140.046     -53.016
  O      -35.459     141.860     -54.509
  O      -35.107     139.537     -55.525
  H      -34.849     142.085     -55.235
  H      -34.028     140.555     -51.104
  H      -35.650     141.076     -51.607
  H      -34.200     141.921     -52.227
  H      -42.464     145.328     -52.156
  H      -41.284     145.998     -51.055
  H      -41.910     144.388     -50.792

 3  4  5  6  7  8  9  10  11  12  23  26  30  31 0
 6-311+G(2d,p)
 ****
 33  35  36  37  38 0
 6-311+G(2d,p)
 ****
 1  2  13  14  15  16  17  18  19  20  21  22  24  25 0
 3-21G
 ****
 27  28  29  32  34  39  40  41  42  43  44  45  46  47  48  49 0
 3-21G
 ****


