%nproc=1
%NoSave
%Mem=1900MB
#P OB98/GEN NMR

erre ene a

0 1
  C      -70.040     274.592    -265.685
  O      -71.460     274.542    -265.584
  P      -72.165     273.183    -266.083
  C      -73.020     272.214    -268.339
  O      -72.433     273.316    -267.664
  C      -74.012     272.691    -269.402
  O      -75.234     273.198    -268.819
  C      -73.464     273.813    -270.273
  O      -72.608     273.283    -271.272
  C      -74.750     274.417    -270.843
  O      -75.196     273.681    -272.000
  C      -75.739     274.252    -269.684
  N      -78.825     278.206    -268.932
  C      -78.839     277.253    -269.935
  N      -79.822     277.357    -270.853
  N      -77.958     276.289    -270.027
  C      -77.029     276.309    -269.035
  C      -76.939     277.182    -267.978
  C      -77.908     278.254    -267.891
  O      -77.961     279.104    -267.008
  N      -75.900     276.847    -267.146
  C      -75.293     275.852    -267.766
  N      -75.973     275.450    -268.889
  O      -73.628     273.258    -265.433
  O      -71.437     271.947    -265.658
  H      -75.375     272.763    -271.753
  H      -73.709     272.588    -264.728
  H      -79.521     278.934    -268.912
  H      -74.375     275.386    -267.446
  H      -76.727     273.931    -270.042
  H      -74.603     275.452    -271.173
  H      -80.535     278.073    -270.841
  H      -72.945     274.552    -269.650
  H      -79.844     276.663    -271.595
  H      -74.269     271.824    -270.025
  H      -73.535     271.562    -267.616
  H      -72.221     271.608    -268.787
  P      -71.030     273.531    -271.110
  C      -69.423     275.543    -271.397
  O      -70.753     275.080    -271.387
  O      -70.415     272.791    -272.392
  O      -70.442     272.983    -269.846
  H      -69.630     272.272    -272.123
  H      -69.350     276.400    -272.079
  H      -68.726     274.770    -271.730
  H      -69.141     275.867    -270.391
  H      -69.690     275.537    -265.326
  H      -69.751     274.470    -266.708
  H      -69.613     273.807    -265.097

 3  4  5  6  7  8  9  10  11  12  23  26  30  31 0
 6-311+G(2d,p)
 ****
 33  35  36  37  38 0
 6-311+G(2d,p)
 ****
 1  2  13  14  15  16  17  18  19  20  21  22  24  25 0
 3-21G
 ****
 27  28  29  32  34  39  40  41  42  43  44  45  46  47  48  49 0
 3-21G
 ****


