%nproc=1
%NoSave
%Mem=1900MB
#P OB98/GEN NMR

erre ene a

0 1
  C      384.752    -209.720     -84.435
  O      383.644    -210.598     -84.357
  H      385.274    -209.732     -83.474
  H      384.416    -208.701     -84.642
  H      385.437    -210.054     -85.217
  P      382.716    -210.698     -85.662
  C      380.825    -208.986     -85.291
  O      382.116    -209.218     -85.839
  C      380.091    -207.904     -86.090
  O      380.836    -206.664     -85.982
  C      379.951    -208.238     -87.578
  O      378.679    -207.787     -88.037
  C      381.044    -207.411     -88.232
  O      380.768    -207.108     -89.595
  C      381.107    -206.191     -87.310
  N      383.554    -201.892     -88.564
  C      382.238    -202.197     -88.497
  N      381.669    -203.366     -88.134
  C      382.610    -204.259     -87.778
  C      383.985    -204.094     -87.799
  C      384.459    -202.842     -88.223
  N      385.794    -202.526     -88.321
  N      384.620    -205.257     -87.404
  C      383.641    -206.108     -87.136
  N      382.412    -205.550     -87.363
  O      381.706    -211.799     -85.654
  O      383.804    -210.776     -86.831
  H      381.549    -206.658     -89.979
  H      384.525    -210.132     -86.692
  H      381.551    -201.398     -88.775
  H      383.775    -207.125     -86.791
  H      380.363    -205.430     -87.574
  H      381.994    -207.969     -88.201
  H      380.067    -209.303     -87.784
  H      379.115    -207.731     -85.628
  H      380.907    -208.672     -84.242
  H      386.041    -201.599     -88.618
  H      386.482    -203.216     -88.052
  H      380.274    -209.927     -85.332
  P      377.615    -208.884     -88.535
  C      378.793    -208.778     -90.836
  O      378.204    -209.615     -89.841
  O      376.203    -208.421     -88.640
  O      377.764    -210.027     -87.419
  H      376.875    -210.406     -87.239
  H      379.144    -209.381     -91.647
  H      379.614    -208.241     -90.410
  H      378.062    -208.085     -91.197

 6  7  8  9  10  11  12  13  14  15  25  28  32  33  34  35 0
 6-311+G(2d,p)
 ****
 36  39  40 0
 6-311+G(2d,p)
 ****
 1  2  3  4  5  16  17  18  19  20  21  22  23  24 0
 3-21G
 ****
 26  27  29  30  31  37  38  41  42  43  44  45  46  47 0
 3-21G
 ****
 48 0
 3-21G
 ****


