%nproc=1
%NoSave
%Mem=1900MB
#P OB98/GEN NMR

erre ene a

0 1
  C      117.213     141.054    -102.583
  O      116.580     140.909    -103.841
  P      116.560     139.507    -104.613
  C      118.311     138.062    -105.826
  O      118.085     139.219    -105.036
  C      119.786     137.927    -106.212
  O      120.609     137.987    -105.013
  C      120.141     136.632    -106.953
  O      121.187     136.963    -107.874
  C      120.679     135.752    -105.834
  O      121.467     134.672    -106.313
  C      121.424     136.795    -104.983
  N      121.659     136.321    -103.625
  C      122.895     135.713    -103.376
  O      123.691     135.527    -104.303
  N      123.182     135.277    -102.107
  C      122.265     135.351    -101.186
  N      122.602     134.910     -99.944
  C      120.907     135.869    -101.436
  C      120.680     136.343    -102.661
  O      115.571     139.410    -105.728
  O      116.318     138.436    -103.450
  H      121.827     134.184    -105.541
  H      115.364     138.430    -103.179
  H      120.160     135.858    -100.656
  H      119.714     136.746    -102.937
  H      122.393     137.045    -105.442
  H      119.844     135.328    -105.266
  H      119.294     136.177    -107.472
  H      120.054     138.797    -106.832
  H      123.551     134.579     -99.815
  H      117.720     138.155    -106.741
  H      121.993     134.995     -99.144
  H      117.968     137.172    -105.295
  P      120.889     137.157    -109.436
  C      120.124     135.678    -111.386
  O      120.367     135.747    -109.992
  O      122.006     137.766    -110.225
  O      119.574     138.074    -109.483
  H      119.469     138.448    -110.380
  H      120.055     134.626    -111.685
  H      120.935     136.153    -111.948
  H      119.179     136.180    -111.616
  H      117.110     142.064    -102.246
  H      118.251     140.813    -102.676
  H      116.756     140.394    -101.876

 3  4  5  6  7  8  9  10  11  12  13  23  27  28  29  30  32 0
 6-311+G(2d,p)
 ****
 34  35 0
 6-311+G(2d,p)
 ****
 1  2  14  15  16  17  18  19  20  21  22  24  25  26 0
 3-21G
 ****
 31  33  36  37  38  39  40  41  42  43  44  45  46 0
 3-21G
 ****


