%nproc=1
%NoSave
%Mem=1900MB
#P OB98/GEN NMR

erre ene a

0 1
  C     -261.240     564.294     328.772
  O     -261.609     564.766     327.490
  H     -262.147     564.168     329.370
  H     -260.593     565.021     329.269
  H     -260.734     563.331     328.700
  P     -260.480     564.877     326.357
  C     -260.936     562.419     325.728
  O     -259.956     563.390     326.074
  C     -260.449     561.585     324.545
  O     -260.300     562.424     323.375
  C     -259.079     560.950     324.764
  O     -259.155     559.834     325.627
  C     -258.681     560.630     323.332
  O     -259.277     559.406     322.887
  C     -259.268     561.835     322.557
  N     -258.238     562.822     322.219
  C     -257.442     562.531     321.116
  O     -257.573     561.517     320.430
  N     -256.435     563.421     320.852
  C     -256.073     564.467     321.656
  O     -255.022     565.084     321.515
  C     -256.982     564.764     322.770
  C     -258.001     563.932     323.007
  O     -259.414     565.894     326.603
  O     -261.314     565.216     325.032
  H     -261.233     566.169     324.835
  H     -259.069     559.338     321.933
  H     -255.829     563.194     320.081
  H     -256.770     565.629     323.384
  H     -258.666     564.109     323.846
  H     -259.743     561.499     321.629
  H     -257.598     560.531     323.230
  H     -258.385     561.699     325.169
  H     -261.205     560.820     324.325
  H     -261.860     562.939     325.451
  H     -261.130     561.784     326.597
  P     -257.857     559.344     326.433
  C     -258.126     561.238     328.155
  O     -257.255     560.608     327.223
  O     -256.862     558.573     325.631
  O     -258.451     558.441     327.617
  H     -257.976     557.589     327.629
  H     -257.620     562.060     328.616
  H     -258.417     560.532     328.905
  H     -258.996     561.595     327.645

 6  7  8  9  10  11  12  13  14  15  16  27  31  32  33  34  35 0
 6-311+G(2d,p)
 ****
 36  37 0
 6-311+G(2d,p)
 ****
 1  2  3  4  5  17  18  19  20  21  22  23  24  25 0
 3-21G
 ****
 26  28  29  30  38  39  40  41  42  43  44  45 0
 3-21G
 ****


