%nproc=1
%NoSave
%Mem=1900MB
#P OB98/GEN NMR

erre ene a

0 1
  C      -69.420    -123.612     -67.383
  O      -69.875    -124.298     -68.531
  H      -70.114    -122.796     -67.163
  H      -68.428    -123.188     -67.568
  H      -69.383    -124.287     -66.524
  P      -69.013    -125.566     -69.001
  C      -67.709    -124.060     -70.673
  O      -68.493    -125.231     -70.483
  C      -67.060    -124.091     -72.054
  O      -66.240    -125.274     -72.174
  C      -68.054    -124.161     -73.208
  O      -68.619    -122.893     -73.500
  C      -67.172    -124.704     -74.324
  O      -66.420    -123.660     -74.959
  C      -66.224    -125.646     -73.570
  N      -67.303    -129.295     -76.961
  C      -66.890    -128.017     -77.109
  N      -66.606    -127.112     -76.150
  C      -66.776    -127.649     -74.929
  C      -67.198    -128.932     -74.624
  C      -67.466    -129.782     -75.709
  N      -67.919    -131.070     -75.559
  N      -67.295    -129.095     -73.256
  C      -66.931    -127.938     -72.745
  N      -66.604    -127.037     -73.720
  O      -70.130    -126.692     -69.236
  O      -67.961    -126.013     -68.042
  H      -67.043    -123.186     -75.545
  H      -70.215    -127.239     -68.434
  H      -66.779    -127.676     -78.135
  H      -66.897    -127.700     -71.689
  H      -65.188    -125.554     -73.916
  H      -67.767    -125.192     -75.098
  H      -68.839    -124.894     -72.989
  H      -66.409    -123.212     -72.154
  H      -66.925    -124.022     -69.907
  H      -68.353    -123.180     -70.567
  H      -68.114    -131.615     -76.382
  H      -68.144    -131.406     -74.632
  P      -70.212    -122.768     -73.585
  C      -70.030    -122.565     -76.169
  O      -70.570    -122.038     -74.968
  O      -70.551    -121.664     -72.476
  O      -70.951    -124.041     -73.350
  H      -70.867    -122.090     -71.657
  H      -70.358    -121.973     -76.998
  H      -70.363    -123.574     -76.297
  H      -68.961    -122.546     -76.118

 6  7  8  9  10  11  12  13  14  15  25  28  32  33  34  35 0
 6-311+G(2d,p)
 ****
 36  37  40 0
 6-311+G(2d,p)
 ****
 1  2  3  4  5  16  17  18  19  20  21  22  23  24 0
 3-21G
 ****
 26  27  29  30  31  38  39 41  42  43  44  45  46  47  48 0
 3-21G
 ****


