%nproc=1
%NoSave
%Mem=1900MB
#P OB98/GEN NMR

erre ene a

0 1
  C       74.315    -377.412     322.684
  O       73.609    -378.034     323.744
  H       74.926    -376.606     323.098
  H       73.611    -376.989     321.961
  H       74.968    -378.137     322.189
  P       72.657    -379.262     323.341
  C       70.602    -377.671     323.553
  O       71.206    -378.905     323.921
  C       69.147    -377.630     324.032
  O       68.394    -378.661     323.317
  C       68.968    -377.912     325.532
  O       67.792    -377.220     325.977
  C       68.710    -379.410     325.537
  O       68.203    -379.831     326.781
  C       67.797    -379.512     324.319
  N       66.098    -384.228     325.341
  C       66.027    -383.076     326.042
  N       66.492    -381.859     325.701
  C       67.062    -381.890     324.482
  C       67.203    -382.986     323.649
  C       66.688    -384.205     324.121
  N       66.769    -385.382     323.414
  N       67.850    -382.626     322.476
  C       68.095    -381.340     322.607
  N       67.646    -380.853     323.804
  O       73.167    -380.446     324.291
  O       72.683    -379.649     321.900
  H       68.003    -380.794     326.767
  H       73.811    -381.001     323.812
  H       65.533    -383.144     327.009
  H       68.600    -380.718     321.875
  H       66.790    -379.125     324.532
  H       69.642    -379.965     325.373
  H       69.828    -377.599     326.136
  H       68.703    -376.666     323.748
  H       70.639    -377.576     322.462
  H       71.158    -376.844     324.007
  H       66.395    -386.220     323.833
  H       67.222    -385.386     322.511
  P       67.958    -375.877     326.850
  C       67.791    -377.293     329.049
  O       67.366    -376.151     328.321
  O       66.826    -374.929     326.214
  O       69.296    -375.226     326.792
  H       67.095    -373.994     326.324
  H       67.298    -377.315     329.998
  H       68.850    -377.248     329.198
  H       67.546    -378.178     328.500

 6  7  8  9  10  11  12  13  14  15  25  28  32  33  34  35 0
 6-311+G(2d,p)
 ****
 36  37  40 0
 6-311+G(2d,p)
 ****
 1  2  3  4  5  16  17  18  19  20  21  22  23  24 0
 3-21G
 ****
 26  27  29  30  31  38  39 41  42  43  44  45  46  47  48 0
 3-21G
 ****


