%nproc=1
%NoSave
%Mem=1900MB
#P OB98/GEN NMR

erre ene a

0 1
  C      105.283      89.210     -50.840
  O      104.941      88.333     -49.761
  P      103.414      87.847     -49.663
  C      103.931      85.334     -50.198
  O      103.315      86.549     -50.600
  C      103.905      84.330     -51.350
  O      104.683      84.821     -52.470
  C      104.503      82.975     -51.005
  O      103.626      82.215     -50.188
  C      104.740      82.401     -52.396
  O      103.519      81.867     -52.932
  C      105.158      83.657     -53.191
  N      106.593      83.730     -53.434
  C      106.972      83.972     -54.752
  O      106.167      84.096     -55.672
  N      108.319      84.047     -54.979
  C      109.301      83.876     -54.046
  O      110.493      83.965     -54.309
  C      108.839      83.573     -52.683
  C      107.527      83.514     -52.441
  O      102.671      88.995     -50.490
  O      102.948      87.673     -48.257
  H      103.197      89.324     -51.238
  H      102.823      82.528     -52.745
  H      108.616      84.233     -55.925
  H      109.591      83.406     -51.922
  H      107.167      83.289     -51.442
  H      104.649      83.676     -54.163
  H      105.479      81.595     -52.397
  H      105.463      83.110     -50.490
  H      102.865      84.214     -51.678
  H      103.397      84.912     -49.342
  H      104.955      85.546     -49.879
  P      103.663      82.514     -48.610
  C      101.358      83.746     -48.617
  O      102.746      83.804     -48.370
  O      105.157      83.062     -48.433
  O      103.339      81.325     -47.767
  H      105.416      83.692     -49.126
  H      100.871      84.567     -48.081
  H      100.930      82.802     -48.273
  H      101.170      83.865     -49.687
  H      106.324      89.453     -50.786
  H      104.703      90.106     -50.769
  H      105.078      88.726     -51.772

 3  4  5  6  7  8  9  10  11  12  13  24  28  29  30  31  32 0
 6-311+G(2d,p)
 ****
 33  34 0
 6-311+G(2d,p)
 ****
 1  2  14  15  16  17  18  19  20  21  22  23  25  26  27 0
 3-21G
 ****
 35  36  37  38  39  40  41  42  43  44  45 0
 3-21G
 ****


