%nproc=1
%NoSave
%Mem=1900MB
#P OB98/GEN NMR

erre ene a

0 1
  C     -139.803      54.851     239.551
  O     -139.033      56.029     239.718
  P     -139.059      57.164     238.592
  C     -136.910      56.124     237.628
  O     -138.213      56.624     237.338
  C     -136.327      55.419     236.407
  O     -137.134      54.278     236.050
  C     -136.274      56.290     235.155
  O     -135.202      57.208     235.223
  C     -136.138      55.230     234.062
  O     -134.767      54.804     233.939
  C     -137.011      54.092     234.617
  N     -139.797      51.932     230.925
  C     -138.469      51.904     231.191
  N     -137.794      52.541     232.176
  C     -138.635      53.285     232.915
  C     -140.006      53.442     232.749
  C     -140.601      52.702     231.705
  N     -141.961      52.671     231.467
  N     -140.516      54.312     233.691
  C     -139.466      54.684     234.407
  N     -138.327      54.040     234.014
  O     -138.692      58.536     239.059
  O     -140.565      57.133     238.050
  H     -134.280      55.518     233.488
  H     -140.983      58.002     238.200
  H     -137.874      51.284     230.526
  H     -139.489      55.397     235.223
  H     -136.539      53.110     234.470
  H     -136.459      55.596     233.080
  H     -137.228      56.815     235.024
  H     -135.323      55.056     236.665
  H     -136.984      55.416     238.463
  H     -142.285      52.000     230.796
  H     -142.578      52.982     232.208
  H     -136.257      56.955     237.930
  P     -135.448      58.753     234.857
  C     -134.569      58.578     232.451
  O     -135.697      58.823     233.273
  O     -134.433      59.716     235.383
  O     -136.907      59.052     235.458
  H     -136.951      59.984     235.747
  H     -133.936      59.471     232.422
  H     -134.916      58.352     231.437
  H     -133.989      57.727     232.821
  H     -139.663      54.210     240.397
  H     -139.490      54.343     238.663
  H     -140.838      55.110     239.467

 3  4  5  6  7  8  9  10  11  12  22  25  29  30  31  32 0
 6-311+G(2d,p)
 ****
 33  36  37 0
 6-311+G(2d,p)
 ****
 1  2  13  14  15  16  17  18  19  20  21  23  24  26 0
 3-21G
 ****
 27  28  34  35  38  39  40  41  42  43  44  45  46  47  48 0
 3-21G
 ****


