%nproc=1
%NoSave
%Mem=1900MB
#P OB98/GEN NMR

erre ene a

0 1
  C       63.635    -218.957     -94.548
  O       64.950    -218.797     -94.015
  P       65.668    -220.051     -93.320
  C       66.297    -218.750     -91.197
  O       66.779    -219.512     -92.294
  C       67.411    -217.947     -90.506
  O       68.471    -218.834     -90.042
  C       68.071    -216.885     -91.398
  O       68.391    -215.774     -90.553
  C       69.334    -217.586     -91.864
  O       70.307    -216.682     -92.358
  C       69.710    -218.347     -90.589
  N       70.648    -219.432     -90.844
  C       71.942    -219.291     -90.339
  O       72.281    -218.236     -89.797
  N       72.823    -220.334     -90.491
  C       72.483    -221.361     -91.213
  N       73.376    -222.380     -91.320
  C       71.188    -221.459     -91.911
  C       70.319    -220.484     -91.666
  O       66.140    -221.121     -94.253
  O       64.529    -220.612     -92.338
  H       69.857    -215.981     -92.878
  H       64.602    -221.589     -92.292
  H       70.984    -222.291     -92.572
  H       69.341    -220.469     -92.121
  H       70.153    -217.670     -89.849
  H       69.084    -218.288     -92.673
  H       67.426    -216.543     -92.212
  H       66.979    -217.466     -89.619
  H       74.273    -222.288     -90.859
  H       65.833    -219.420     -90.469
  H       73.168    -223.233     -91.827
  H       65.497    -218.087     -91.545
  P       67.289    -214.631     -90.324
  C       67.329    -213.916     -92.827
  O       67.475    -213.530     -91.475
  O       67.877    -213.863     -89.037
  O       65.900    -215.098     -90.049
  H       67.141    -213.421     -88.573
  H       67.208    -213.019     -93.436
  H       66.451    -214.551     -92.965
  H       68.225    -214.453     -93.157
  H       63.307    -218.031     -94.972
  H       62.966    -219.248     -93.765
  H       63.647    -219.712     -95.306

 3  4  5  6  7  8  9  10  11  12  13  23  27  28  29  30  32 0
 6-311+G(2d,p)
 ****
 34  35 0
 6-311+G(2d,p)
 ****
 1  2  14  15  16  17  18  19  20  21  22  24  25  26 0
 3-21G
 ****
 31  33  36  37  38  39  40  41  42  43  44  45  46 0
 3-21G
 ****


