%nproc=1
%NoSave
%Mem=1900MB
#P OB98/GEN NMR

erre ene a

0 1
  C     1360.286    -329.694     757.961
  O     1361.132    -330.131     759.009
  H     1360.793    -329.783     757.004
  H     1359.382    -330.312     757.950
  H     1360.000    -328.651     758.134
  P     1362.535    -329.383     759.180
  C     1363.863    -331.353     758.151
  O     1363.674    -330.515     759.274
  C     1364.887    -332.441     758.472
  O     1366.153    -331.791     758.794
  C     1364.507    -333.334     759.671
  O     1364.483    -334.711     759.257
  C     1365.655    -333.172     760.666
  O     1366.038    -334.386     761.295
  C     1366.781    -332.571     759.803
  N     1371.192    -332.668     762.341
  C     1370.736    -333.442     761.342
  N     1369.595    -333.309     760.628
  C     1368.906    -332.208     761.035
  C     1369.295    -331.310     762.020
  C     1370.477    -331.568     762.704
  N     1370.928    -330.811     763.751
  N     1368.331    -330.308     762.152
  C     1367.391    -330.636     761.279
  N     1367.694    -331.780     760.604
  O     1362.464    -328.784     760.666
  O     1362.801    -328.306     758.164
  H     1366.220    -335.025     760.569
  H     1362.725    -327.852     760.651
  H     1371.350    -334.306     761.092
  H     1366.462    -330.109     761.133
  H     1367.368    -333.382     759.305
  H     1365.349    -332.434     761.441
  H     1363.550    -333.068     760.132
  H     1365.064    -333.049     757.585
  H     1364.231    -330.756     757.311
  H     1371.731    -331.153     764.271
  H     1370.344    -330.068     764.093
  H     1362.897    -331.811     757.876
  P     1363.035    -335.321     758.938
  C     1362.757    -335.972     761.435
  O     1362.696    -336.396     760.088
  O     1363.306    -336.270     757.654
  O     1361.979    -334.307     758.672
  H     1362.512    -336.356     757.121
  H     1362.508    -336.790     762.078
  H     1362.062    -335.173     761.589
  H     1363.747    -335.632     761.657

 6  7  8  9  10  11  12  13  14  15  25  28  32  33  34  35 0
 6-311+G(2d,p)
 ****
 36  39  40 0
 6-311+G(2d,p)
 ****
 1  2  3  4  5  16  17  18  19  20  21  22  23  24 0
 3-21G
 ****
 26  27  29  30  31  37  38  41  42  43  44  45  46  47  48 0
 3-21G
 ****


