%nproc=1
%NoSave
%Mem=1900MB
#P OB98/GEN NMR

erre ene a

0 1
  C       73.031     537.489     296.105
  O       71.796     537.163     296.725
  P       70.715     536.253     295.974
  C       70.270     537.903     293.977
  O       69.779     537.206     295.102
  C       69.088     538.421     293.155
  O       68.315     537.312     292.640
  C       68.155     539.288     293.996
  O       68.481     540.669     293.846
  C       66.786     538.941     293.449
  O       66.519     539.668     292.234
  C       66.952     537.433     293.135
  N       66.785     536.469     294.243
  C       65.515     536.229     294.759
  O       64.492     536.762     294.330
  N       65.456     535.371     295.828
  C       66.520     534.709     296.375
  O       66.498     534.144     297.461
  C       67.772     534.790     295.619
  C       67.853     535.666     294.622
  O       69.758     535.779     297.168
  O       71.271     535.095     295.206
  H       65.650     539.374     291.902
  H       69.991     534.878     297.458
  H       64.559     535.305     296.296
  H       68.604     534.171     295.934
  H       68.783     535.771     294.071
  H       66.277     537.120     292.331
  H       65.994     539.218     294.150
  H       68.197     538.994     295.045
  H       69.468     538.988     292.294
  H       70.898     537.245     293.377
  H       70.894     538.742     294.306
  P       68.747     541.562     295.145
  C       66.292     541.542     295.880
  O       67.363     542.331     295.408
  O       69.961     542.424     295.100
  O       68.820     540.479     296.327
  H       69.766     540.275     296.525
  H       65.474     542.203     296.187
  H       66.600     540.939     296.739
  H       65.927     540.893     295.075
  H       73.611     538.101     296.764
  H       72.844     538.022     295.196
  H       73.569     536.590     295.887

 3  4  5  6  7  8  9  10  11  12  13  23  28  29  30  31  32 0
 6-311+G(2d,p)
 ****
 33  34 0
 6-311+G(2d,p)
 ****
 1  2  14  15  16  17  18  19  20  21  22  24  25  26  27 0
 3-21G
 ****
 35  36  37  38  39  40  41  42  43  44  45 0
 3-21G
 ****


