%nproc=1
%NoSave
%Mem=1900MB
#P OB98/GEN NMR

erre ene a

0 1
  C     -210.650     534.415    -499.111
  O     -209.309     534.876    -499.132
  P     -208.228     534.001    -499.935
  C     -206.904     531.827    -499.416
  O     -207.622     532.942    -498.895
  C     -205.864     531.334    -498.400
  O     -204.755     532.272    -498.372
  C     -206.387     531.185    -496.966
  O     -205.703     530.059    -496.387
  C     -205.938     532.489    -496.333
  O     -205.945     532.468    -494.914
  C     -204.565     532.648    -496.982
  N     -201.383     535.734    -494.419
  C     -201.617     534.403    -494.325
  N     -202.480     533.648    -495.042
  C     -203.119     534.410    -495.955
  C     -202.996     535.766    -496.164
  C     -202.078     536.446    -495.343
  N     -201.837     537.798    -495.432
  N     -203.841     536.190    -497.166
  C     -204.469     535.102    -497.559
  N     -204.046     533.991    -496.877
  O     -207.020     535.034    -500.150
  O     -208.711     533.428    -501.227
  H     -205.307     531.818    -494.582
  H     -206.617     534.920    -501.034
  H     -201.050     533.872    -493.562
  H     -205.230     535.062    -498.332
  H     -203.821     531.969    -496.550
  H     -206.613     533.283    -496.641
  H     -207.469     531.015    -496.920
  H     -205.466     530.376    -498.762
  H     -206.381     532.129    -500.320
  H     -201.315     538.222    -494.670
  H     -202.510     538.350    -495.969
  H     -207.611     531.035    -499.675
  P     -206.576     528.862    -495.767
  C     -207.533     528.412    -493.424
  O     -206.776     529.289    -494.230
  O     -205.464     527.717    -495.645
  O     -207.801     528.472    -496.527
  H     -204.666     528.036    -495.196
  H     -207.502     528.770    -492.387
  H     -207.111     527.400    -493.462
  H     -208.574     528.398    -493.761
  H     -211.252     535.094    -498.543
  H     -210.687     533.445    -498.662
  H     -211.024     534.359    -500.112

 3  4  5  6  7  8  9  10  11  12  22  25  29  30  31  32 0
 6-311+G(2d,p)
 ****
 33  36  37 0
 6-311+G(2d,p)
 ****
 1  2  13  14  15  16  17  18  19  20  21  23  24  26 0
 3-21G
 ****
 27  28  34  35  38  39  40  41  42  43  44  45  46  47  48 0
 3-21G
 ****


