%nproc=1
%NoSave
%Mem=1900MB
#P OB98/GEN NMR

erre ene a

0 1
  C      -90.493       7.733     297.345
  O      -90.415       6.325     297.447
  H      -91.544       8.031     297.386
  H      -90.071       8.065     296.390
  H      -89.958       8.204     298.174
  P      -88.945       5.684     297.380
  C      -88.204       6.365     299.770
  O      -88.553       5.306     298.890
  C      -87.502       5.818     301.009
  O      -88.436       5.116     301.858
  C      -86.369       4.843     300.712
  O      -85.169       5.531     300.403
  C      -86.285       4.075     302.023
  O      -85.539       4.809     303.017
  C      -87.763       3.961     302.424
  N      -87.899      -1.053     302.987
  C      -87.162      -0.103     303.660
  N      -86.291      -0.560     304.587
  N      -87.259       1.182     303.440
  C      -88.145       1.490     302.463
  C      -88.947       0.640     301.735
  C      -88.850      -0.777     302.013
  O      -89.523      -1.665     301.497
  N      -89.727       1.332     300.848
  C      -89.374       2.593     301.010
  N      -88.402       2.738     301.968
  O      -88.004       6.941     297.061
  O      -88.767       4.597     296.375
  H      -84.590       4.748     302.815
  H      -87.235       6.640     296.541
  H      -87.792      -2.027     303.214
  H      -89.785       3.430     300.464
  H      -87.900       4.003     303.509
  H      -85.779       3.117     301.898
  H      -85.941      -1.509     304.560
  H      -86.649       4.154     299.906
  H      -85.730       0.129     305.069
  H      -87.129       6.676     301.581
  H      -89.116       6.889     300.076
  H      -87.547       7.068     299.245
  P      -84.157       4.838     299.365
  C      -84.732       6.209     297.231
  O      -83.798       5.953     298.270
  O      -85.094       3.822     298.559
  O      -82.991       4.152     299.995
  H      -84.547       3.157     298.096
  H      -84.349       6.973     296.587
  H      -85.659       6.533     297.656
  H      -84.892       5.314     296.667

 6  7  8  9  10  11  12  13  14  15  26  29  33  34 0
 6-311+G(2d,p)
 ****
 36  38  39  40  41 0
 6-311+G(2d,p)
 ****
 1  2  3  4  5  16  17  18  19  20  21  22  23  24  25 0
 3-21G
 ****
 27  28  30  31  32  35  37  42  43  44  45  46  47 0
 3-21G
 ****
 48  49 0
 3-21G
 ****


