%nproc=1
%NoSave
%Mem=1900MB
#P OB98/GEN NMR

erre ene a

0 1
  C     -556.874     -60.397      80.558
  O     -556.623     -61.481      81.437
  H     -555.996     -59.747      80.546
  H     -557.739     -59.823      80.908
  H     -557.057     -60.767      79.545
  P     -557.788     -62.575      81.586
  C     -558.421     -62.241      84.088
  O     -558.778     -62.031      82.726
  C     -559.672     -62.531      84.906
  O     -560.568     -61.401      84.851
  C     -560.477     -63.722      84.410
  O     -559.917     -64.958      84.797
  C     -561.833     -63.442      85.036
  O     -561.889     -63.904      86.395
  C     -561.915     -61.912      84.998
  N     -566.684     -60.633      83.678
  C     -566.136     -60.978      84.864
  N     -564.849     -61.301      85.133
  C     -564.093     -61.194      84.026
  C     -564.512     -60.844      82.752
  C     -565.875     -60.553      82.593
  N     -566.435     -60.216      81.383
  N     -563.449     -60.889      81.871
  C     -562.410     -61.245      82.595
  N     -562.752     -61.443      83.907
  O     -557.041     -63.806      82.284
  O     -558.446     -62.971      80.308
  H     -561.658     -64.855      86.374
  H     -556.817     -64.475      81.607
  H     -566.824     -61.028      85.702
  H     -561.401     -61.390      82.224
  H     -562.322     -61.492      85.922
  H     -562.632     -63.938      84.485
  H     -560.582     -63.669      83.312
  H     -559.378     -62.678      85.961
  H     -557.931     -61.344      84.476
  H     -557.718     -63.082      84.149
  H     -567.430     -60.088      81.330
  H     -565.861     -60.265      80.548
  P     -560.288     -66.258      83.928
  C     -562.462     -66.510      85.354
  O     -561.874     -66.483      84.057
  O     -559.665     -67.469      84.763
  O     -559.779     -66.224      82.524
  H     -559.331     -68.159      84.143
  H     -563.517     -66.668      85.264
  H     -562.281     -65.578      85.847
  H     -562.030     -67.305      85.925

 6  7  8  9  10  11  12  13  14  15  25  28  32  33  34  35 0
 6-311+G(2d,p)
 ****
 36  37  40 0
 6-311+G(2d,p)
 ****
 1  2  3  4  5  16  17  18  19  20  21  22  23  24 0
 3-21G
 ****
 26  27  29  30  31  38  39 41  42  43  44  45  46  47  48 0
 3-21G
 ****


