%nproc=1
%NoSave
%Mem=1900MB
#P OB98/GEN NMR

erre ene a

0 1
  C     -132.201      58.735     414.900
  O     -131.242      57.731     414.519
  P     -131.654      56.410     413.714
  C     -132.840      54.156     414.160
  O     -132.290      55.338     414.728
  C     -132.599      52.931     415.059
  O     -131.201      52.585     415.086
  C     -133.002      53.123     416.517
  O     -134.408      53.059     416.676
  C     -132.224      51.991     417.184
  O     -132.935      50.740     417.070
  C     -130.929      51.961     416.357
  N     -129.808      52.605     417.038
  C     -128.954      51.767     417.759
  O     -129.180      50.563     417.842
  N     -127.861      52.326     418.390
  C     -127.689      53.604     418.354
  N     -126.582      54.106     418.986
  C     -128.619      54.543     417.684
  C     -129.653      53.972     417.049
  O     -130.551      55.850     412.860
  O     -132.896      56.838     412.801
  H     -133.001      50.549     416.110
  H     -132.892      56.307     411.977
  H     -128.450      55.606     417.704
  H     -130.370      54.580     416.515
  H     -130.640      50.916     416.118
  H     -132.053      52.169     418.247
  H     -132.617      54.088     416.881
  H     -133.154      52.083     414.623
  H     -125.964      53.446     419.428
  H     -132.359      53.983     413.188
  H     -126.356      55.088     419.024
  H     -133.909      54.303     413.999
  P     -135.215      54.356     417.163
  C     -136.377      55.063     419.348
  O     -135.364      54.264     418.759
  O     -136.484      54.651     416.419
  O     -134.156      55.554     416.991
  H     -134.637      56.382     416.767
  H     -136.637      54.633     420.322
  H     -137.274      55.104     418.719
  H     -135.986      56.080     419.499
  H     -131.703      59.523     415.426
  H     -132.943      58.297     415.534
  H     -132.669      59.132     414.024

 3  4  5  6  7  8  9  10  11  12  13  23  27  28  29  30  32 0
 6-311+G(2d,p)
 ****
 34  35 0
 6-311+G(2d,p)
 ****
 1  2  14  15  16  17  18  19  20  21  22  24  25  26 0
 3-21G
 ****
 31  33  36  37  38  39  40  41  42  43  44  45  46 0
 3-21G
 ****


