%nproc=1
%NoSave
%Mem=1900MB
#P OB98/GEN NMR

erre ene a

0 1
  C     -142.460    -192.676      59.177
  O     -141.374    -192.999      58.334
  H     -143.353    -193.188      58.812
  H     -142.640    -191.599      59.157
  H     -142.263    -193.001      60.204
  P     -139.912    -192.547      58.811
  C     -139.444    -194.783      60.055
  O     -139.060    -193.896      59.014
  C     -139.588    -196.202      59.504
  O     -140.773    -196.251      58.658
  C     -138.397    -196.667      58.655
  O     -138.196    -198.066      58.888
  C     -138.892    -196.466      57.234
  O     -138.227    -197.274      56.272
  C     -140.376    -196.815      57.392
  N     -141.195    -196.290      56.301
  C     -141.195    -196.998      55.103
  O     -140.626    -198.073      54.923
  N     -141.892    -196.417      54.075
  C     -142.551    -195.223      54.120
  O     -143.140    -194.746      53.156
  C     -142.508    -194.518      55.409
  C     -141.842    -195.074      56.423
  O     -140.163    -192.040      60.305
  O     -139.247    -191.518      57.960
  H     -140.380    -191.087      60.311
  H     -137.338    -196.883      56.128
  H     -141.902    -196.918      53.198
  H     -143.009    -193.563      55.478
  H     -141.770    -194.570      57.382
  H     -140.507    -197.900      57.462
  H     -138.767    -195.417      56.939
  H     -137.470    -196.120      58.849
  H     -139.765    -196.889      60.341
  H     -140.403    -194.462      60.471
  H     -138.688    -194.757      60.849
  P     -136.764    -198.517      59.454
  C     -137.752    -200.706      60.506
  O     -136.840    -200.115      59.592
  O     -136.846    -197.984      60.960
  O     -135.625    -197.986      58.654
  H     -137.739    -198.046      61.338
  H     -137.662    -201.771      60.461
  H     -138.751    -200.421      60.248
  H     -137.530    -200.371      61.498

 6  7  8  9  10  11  12  13  14  15  16  27  31  32  33  34  35 0
 6-311+G(2d,p)
 ****
 36  37 0
 6-311+G(2d,p)
 ****
 1  2  3  4  5  17  18  19  20  21  22  23  24  25 0
 3-21G
 ****
 26  28  29  30  38  39  40  41  42  43  44  45 0
 3-21G
 ****


