%nproc=1
%NoSave
%Mem=1900MB
#P OB98/GEN NMR

erre ene a

0 1
  C      548.111     239.512     597.600
  O      549.347     239.906     597.037
  H      547.451     239.175     596.799
  H      547.641     240.359     598.112
  H      548.269     238.691     598.308
  P      550.427     240.543     598.044
  C      549.345     242.892     598.404
  O      549.550     241.588     598.913
  C      549.277     243.907     599.554
  O      548.378     243.441     600.577
  C      550.612     244.136     600.263
  O      551.489     244.979     599.546
  C      550.113     244.788     601.535
  O      549.716     246.151     601.265
  C      548.884     243.900     601.857
  N      549.223     242.774     602.728
  C      549.333     243.043     604.091
  O      549.184     244.189     604.529
  N      549.676     242.020     604.951
  C      549.852     240.811     604.489
  N      550.193     239.843     605.376
  C      549.721     240.482     603.059
  C      549.406     241.498     602.243
  O      551.285     241.516     597.101
  O      551.228     239.581     598.842
  H      550.525     246.627     601.017
  H      551.884     242.073     597.652
  H      549.892     239.464     602.714
  H      549.284     241.321     601.186
  H      548.094     244.492     602.343
  H      550.861     244.831     602.328
  H      551.105     243.188     600.519
  H      548.864     244.841     599.151
  H      550.326     240.124     606.345
  H      548.389     242.896     597.847
  H      550.494     238.930     605.093
  H      550.162     243.177     597.717
  P      553.043     244.588     599.519
  C      553.946     245.374     601.841
  O      553.480     244.287     601.032
  O      553.777     245.974     599.185
  O      553.402     243.520     598.535
  H      554.572     245.825     598.650
  H      554.196     245.011     602.816
  H      553.177     246.114     601.922
  H      554.813     245.809     601.389

 6  7  8  9  10  11  12  13  14  15  16  26  30  31  32  33  35 0
 6-311+G(2d,p)
 ****
 37  38 0
 6-311+G(2d,p)
 ****
 1  2  3  4  5  17  18  19  20  21  22  23  24  25 0
 3-21G
 ****
 27  28  29  34  36  39  40  41  42  43  44  45  46 0
 3-21G
 ****


