%nproc=1
%NoSave
%Mem=1900MB
#P OB98/GEN NMR

erre ene a

0 1
  C     -648.352      23.608    -300.359
  O     -647.501      22.531    -300.021
  H     -647.883      24.534    -300.015
  H     -649.310      23.489    -299.853
  H     -648.502      23.682    -301.437
  P     -647.793      21.090    -300.666
  C     -645.987      21.113    -302.508
  O     -647.374      21.184    -302.211
  C     -645.406      22.511    -302.750
  O     -645.526      23.294    -301.527
  C     -643.908      22.496    -303.166
  O     -643.708      23.623    -304.022
  C     -643.231      22.717    -301.825
  O     -641.900      23.148    -301.987
  C     -644.186      23.725    -301.177
  N     -644.012      23.813    -299.727
  C     -643.014      24.665    -299.268
  O     -642.275      25.305    -300.022
  N     -642.839      24.736    -297.914
  C     -643.523      23.979    -296.991
  O     -643.312      24.058    -295.775
  C     -644.542      23.069    -297.538
  C     -644.737      23.021    -298.841
  O     -649.158      20.534    -300.420
  O     -646.647      20.136    -300.063
  H     -641.412      23.079    -301.142
  H     -646.976      19.231    -299.977
  H     -642.131      25.351    -297.558
  H     -645.097      22.451    -296.829
  H     -645.476      22.359    -299.279
  H     -644.044      24.724    -301.595
  H     -643.212      21.786    -301.245
  H     -643.605      21.583    -303.658
  H     -646.022      23.011    -303.514
  H     -645.862      20.499    -303.403
  H     -645.462      20.636    -301.663
  P     -644.220      23.653    -305.535
  C     -645.259      25.977    -305.918
  O     -645.515      24.593    -305.646
  O     -644.412      22.303    -306.150
  O     -643.091      24.467    -306.338
  H     -643.062      24.169    -307.269
  H     -646.187      26.508    -305.971
  H     -644.743      26.068    -306.851
  H     -644.657      26.389    -305.135

 6  7  8  9  10  11  12  13  14  15  16  26  31  32  33  34  35 0
 6-311+G(2d,p)
 ****
 36  37 0
 6-311+G(2d,p)
 ****
 1  2  3  4  5  17  18  19  20  21  22  23  24  25 0
 3-21G
 ****
 27  28  29  30  38  39  40  41  42  43  44  45 0
 3-21G
 ****


