%nproc=1
%NoSave
%Mem=1900MB
#P OB98/GEN NMR

erre ene a

0 1
  C      165.923     -91.342    -338.441
  O      165.232     -90.149    -338.762
  P      166.003     -88.743    -338.780
  C      165.123     -87.919    -336.510
  O      166.273     -88.301    -337.263
  C      165.517     -87.608    -335.066
  O      165.897     -88.816    -334.358
  C      166.713     -86.679    -334.927
  O      166.386     -85.342    -335.257
  C      167.094     -86.907    -333.472
  O      166.254     -86.142    -332.596
  C      166.805     -88.416    -333.307
  N      168.026     -89.217    -333.323
  C      168.582     -89.514    -332.077
  O      168.099     -89.032    -331.045
  N      169.683     -90.334    -332.029
  C      170.248     -90.721    -333.130
  N      171.297     -91.583    -333.023
  C      169.779     -90.303    -334.468
  C      168.662     -89.575    -334.494
  O      165.392     -87.693    -339.639
  O      167.480     -89.122    -339.301
  H      167.713     -88.519    -340.033
  H      166.442     -86.444    -331.689
  H      170.327     -90.598    -335.352
  H      168.231     -89.237    -335.430
  H      166.273     -88.598    -332.369
  H      168.127     -86.619    -333.263
  H      167.524     -87.027    -335.573
  H      164.638     -87.177    -334.558
  H      171.579     -91.862    -332.085
  H      164.405     -88.740    -336.529
  H      171.587     -92.188    -333.783
  H      164.660     -87.044    -336.976
  P      167.610     -84.339    -335.536
  C      167.491     -83.477    -333.094
  O      168.300     -84.015    -334.123
  O      166.890     -82.968    -335.930
  O      168.551     -84.792    -336.612
  H      167.405     -82.509    -336.625
  H      167.992     -83.644    -332.139
  H      166.506     -83.956    -333.067
  H      167.372     -82.403    -333.255
  H      165.245     -92.169    -338.481
  H      166.331     -91.263    -337.455
  H      166.715     -91.496    -339.144

 3  4  5  6  7  8  9  10  11  12  13  24  27  28  29  30  32 0
 6-311+G(2d,p)
 ****
 34  35 0
 6-311+G(2d,p)
 ****
 1  2  14  15  16  17  18  19  20  21  22  23  25  26 0
 3-21G
 ****
 31  33  36  37  38  39  40  41  42  43  44  45  46 0
 3-21G
 ****


