%nproc=1
%NoSave
%Mem=1900MB
#P OB98/GEN NMR

erre ene a

0 1
  C     -890.160    -140.245     162.560
  O     -891.550    -140.523     162.559
  H     -889.800    -140.339     163.581
  H     -889.980    -139.225     162.216
  H     -889.620    -140.955     161.935
  P     -892.330    -140.559     161.156
  C     -894.100    -142.282     161.848
  O     -893.860    -140.938     161.488
  C     -895.330    -142.385     162.767
  O     -895.040    -141.714     164.013
  C     -896.590    -141.739     162.164
  O     -897.730    -142.529     162.526
  C     -896.660    -140.390     162.868
  O     -898.000    -139.894     162.944
  C     -896.060    -140.733     164.237
  N     -897.210    -136.292     166.355
  C     -898.040    -137.277     165.874
  N     -899.370    -137.056     165.935
  N     -897.590    -138.409     165.359
  C     -896.250    -138.507     165.381
  C     -895.320    -137.590     165.832
  C     -895.820    -136.348     166.381
  O     -895.130    -135.422     166.808
  N     -894.040    -138.048     165.642
  C     -894.180    -139.234     165.083
  N     -895.510    -139.551     164.885
  O     -891.700    -141.393     160.094
  O     -892.430    -139.020     160.729
  H     -898.250    -139.587     162.048
  H     -891.740    -138.806     160.060
  H     -897.610    -135.443     166.733
  H     -893.370    -139.897     164.788
  H     -896.800    -141.143     164.934
  H     -896.040    -139.661     162.338
  H     -899.780    -136.225     166.334
  H     -896.540    -141.632     161.075
  H     -900.000    -137.780     165.602
  H     -895.510    -143.442     162.997
  H     -893.220    -142.667     162.387
  H     -894.260    -142.884     160.943
  P     -898.240    -143.638     161.492
  C     -898.670    -145.228     163.480
  O     -899.190    -144.649     162.287
  O     -897.200    -144.282     160.640
  O     -899.300    -142.811     160.593
  H     -899.310    -143.201     159.704
  H     -899.402    -145.879     163.909
  H     -898.430    -144.453     164.177
  H     -897.787    -145.787     163.250

 6  7  8  9  10  11  12  13  14  15  26  29  33  34 0
 6-311+G(2d,p)
 ****
 36  38  39  40  41 0
 6-311+G(2d,p)
 ****
 1  2  3  4  5  16  17  18  19  20  21  22  23  24  25 0
 3-21G
 ****
 27  28  30  31  32  35  37  42  43  44  45  46  47 0
 3-21G
 ****
 48  49 0
 3-21G
 ****


