%nproc=1
%NoSave
%Mem=1900MB
#P OB98/GEN NMR

erre ene a

0 1
  C       93.179     -51.066      -4.702
  O       93.560     -49.954      -3.915
  H       92.210     -50.853      -5.161
  H       93.087     -51.966      -4.089
  H       93.913     -51.231      -5.495
  P       94.807     -50.126      -2.918
  C       93.413     -50.718      -0.831
  O       94.327     -51.193      -1.815
  C       92.871     -51.864       0.022
  O       91.995     -52.709      -0.755
  C       93.942     -52.803       0.556
  O       94.813     -52.226       1.501
  C       93.123     -54.023       0.945
  O       92.519     -53.886       2.231
  C       92.032     -54.023      -0.155
  N       92.253     -55.064      -1.153
  C       91.150     -55.848      -1.469
  O       90.046     -55.714      -0.941
  N       91.362     -56.828      -2.400
  C       92.554     -57.121      -2.995
  O       92.683     -58.029      -3.808
  C       93.694     -56.284      -2.591
  C       93.494     -55.306      -1.704
  O       95.351     -48.855      -2.336
  O       95.874     -50.949      -3.778
  H       93.212     -54.073       2.892
  H       96.773     -50.907      -3.367
  H       90.570     -57.398      -2.655
  H       94.658     -56.496      -3.033
  H       94.321     -54.672      -1.391
  H       91.043     -54.188       0.292
  H       93.725     -54.934       0.966
  H       94.576     -53.112      -0.285
  H       92.279     -51.432       0.836
  H       92.581     -50.233      -1.355
  H       93.911     -49.978      -0.197
  P       96.338     -52.656       1.678
  C       95.894     -54.281       3.678
  O       96.384     -54.109       2.353
  O       97.272     -51.611       2.195
  O       96.764     -52.980       0.155
  H       97.703     -52.726       0.059
  H       96.001     -55.306       3.968
  H       94.861     -54.006       3.715
  H       96.452     -53.661       4.348

 6  7  8  9  10  11  12  13  14  15  16  26  31  32  33  34  35 0
 6-311+G(2d,p)
 ****
 36  37 0
 6-311+G(2d,p)
 ****
 1  2  3  4  5  17  18  19  20  21  22  23  24  25 0
 3-21G
 ****
 27  28  29  30  38  39  40  41  42  43  44  45 0
 3-21G
 ****


