%nproc=1
%NoSave
%Mem=1900MB
#P OB98/GEN NMR

erre ene a

0 1
  C       45.889       6.901      36.653
  O       45.867       6.831      35.239
  P       46.335       8.116      34.401
  C       43.971       9.245      34.595
  O       45.364       9.318      34.832
  C       43.469      10.550      33.970
  O       43.489      11.595      34.980
  C       44.302      11.046      32.781
  O       43.397      11.663      31.857
  C       45.208      12.086      33.415
  O       45.716      13.018      32.474
  C       44.260      12.692      34.456
  N       44.955      13.393      35.536
  C       44.782      14.770      35.634
  O       44.100      15.432      34.855
  N       45.456      15.381      36.660
  C       46.314      14.779      37.533
  O       46.905      15.379      38.422
  C       46.494      13.332      37.350
  C       45.810      12.716      36.385
  O       45.843       7.724      32.932
  O       47.790       8.413      34.521
  H       45.007       7.227      32.931
  H       46.084      13.775      32.966
  H       45.316      16.375      36.773
  H       47.179      12.820      38.014
  H       45.927      11.651      36.230
  H       43.556      13.376      33.969
  H       46.059      11.586      33.892
  H       44.847      10.239      32.285
  H       42.423      10.407      33.670
  H       43.449       9.080      35.541
  H       43.760       8.392      33.941
  P       43.589      11.358      30.288
  C       43.993      13.789      29.408
  O       44.520      12.512      29.687
  O       42.133      11.755      29.743
  O       43.965       9.951      29.962
  H       41.828      12.616      30.072
  H       44.818      14.503      29.336
  H       43.313      14.122      30.196
  H       43.463      13.767      28.452
  H       45.551       5.972      37.061
  H       45.245       7.690      36.981
  H       46.888       7.094      36.985

 3  4  5  6  7  8  9  10  11  12  13  24  28  29  30  31  32 0
 6-311+G(2d,p)
 ****
 33  34 0
 6-311+G(2d,p)
 ****
 1  2  14  15  16  17  18  19  20  21  22  23  25  26  27 0
 3-21G
 ****
 35  36  37  38  39  40  41  42  43  44  45 0
 3-21G
 ****


