%nproc=1
%NoSave
%Mem=1900MB
#P OB98/GEN NMR

erre ene a

0 1
  C      271.172    -138.421     -20.128
  O      269.935    -138.207     -20.810
  P      269.262    -136.761     -20.621
  C      270.078    -135.744     -22.865
  O      268.970    -136.158     -22.079
  C      269.608    -134.945     -24.082
  O      270.703    -134.340     -24.798
  C      268.858    -135.788     -25.104
  O      267.520    -135.987     -24.681
  C      268.969    -134.928     -26.357
  O      267.946    -133.912     -26.388
  C      270.358    -134.287     -26.205
  N      272.774    -134.295     -30.662
  C      271.640    -133.609     -30.269
  N      271.087    -132.790     -31.188
  N      271.101    -133.717     -29.083
  C      271.762    -134.570     -28.266
  C      272.909    -135.284     -28.530
  C      273.493    -135.158     -29.848
  O      274.507    -135.727     -30.235
  N      273.318    -135.997     -27.432
  C      272.351    -135.810     -26.553
  N      271.416    -134.903     -26.985
  O      270.466    -135.866     -20.064
  O      268.099    -136.765     -19.686
  H      267.982    -133.451     -27.246
  H      270.304    -135.639     -19.129
  H      273.141    -134.183     -31.590
  H      272.294    -136.285     -25.585
  H      270.344    -133.229     -26.493
  H      268.842    -135.519     -27.268
  H      271.450    -132.657     -32.120
  H      269.373    -136.744     -25.258
  H      270.260    -132.271     -30.918
  H      268.957    -134.141     -23.717
  H      270.651    -136.614     -23.193
  H      270.749    -135.145     -22.239
  P      266.844    -137.409     -24.983
  C      267.829    -138.577     -22.885
  O      266.671    -138.165     -23.584
  O      268.015    -138.219     -25.717
  O      265.619    -137.344     -25.833
  H      267.650    -138.692     -26.489
  H      267.616    -138.573     -21.814
  H      268.678    -137.914     -23.080
  H      268.091    -139.594     -23.191
  H      271.522    -139.412     -20.327
  H      271.025    -138.299     -19.075
  H      271.896    -137.712     -20.471

 3  4  5  6  7  8  9  10  11  12  23  26  30  31 0
 6-311+G(2d,p)
 ****
 33  35  36  37  38 0
 6-311+G(2d,p)
 ****
 1  2  13  14  15  16  17  18  19  20  21  22  24  25 0
 3-21G
 ****
 27  28  29  32  34  39  40  41  42  43  44  45  46  47  48  49 0
 3-21G
 ****


