%nproc=1
%NoSave
%Mem=1900MB
#P OB98/GEN NMR

erre ene a

0 1
  C       59.347     -12.302      23.490
  O       59.489     -10.913      23.273
  H       60.324     -12.779      23.368
  H       58.655     -12.728      22.759
  H       58.984     -12.494      24.503
  P       58.169     -10.018      23.447
  C       57.900      -9.788      20.871
  O       58.055      -9.124      22.120
  C       57.340      -8.817      19.836
  O       57.300      -9.462      18.544
  C       55.911      -8.364      20.113
  O       55.858      -7.346      21.096
  C       55.476      -7.896      18.730
  O       55.911      -6.555      18.467
  C       56.208      -8.874      17.802
  N       53.596     -10.466      13.727
  C       54.439      -9.427      13.910
  N       55.113      -9.081      15.028
  C       54.850      -9.946      16.022
  C       54.009     -11.044      15.986
  C       53.362     -11.300      14.767
  N       52.476     -12.336      14.590
  N       53.963     -11.660      17.221
  C       54.770     -10.952      17.985
  N       55.330      -9.911      17.302
  O       58.598      -8.966      24.577
  O       56.935     -10.768      23.819
  H       56.841      -6.501      18.759
  H       58.309      -9.290      25.451
  H       54.590      -8.786      13.045
  H       54.971     -11.147      19.032
  H       56.644      -8.370      16.931
  H       54.391      -7.910      18.629
  H       55.291      -9.220      20.407
  H       58.014      -7.955      19.766
  H       57.205     -10.627      20.992
  H       58.873     -10.174      20.552
  H       52.030     -12.446      13.694
  H       52.214     -12.899      15.388
  P       54.936      -7.576      22.385
  C       52.860      -6.546      21.208
  O       53.737      -6.512      22.321
  O       55.850      -7.047      23.587
  O       54.498      -8.986      22.595
  H       56.270      -7.795      24.050
  H       52.121      -5.780      21.313
  H       52.380      -7.501      21.161
  H       53.418      -6.383      20.309

 6  7  8  9  10  11  12  13  14  15  25  28  32  33  34  35 0
 6-311+G(2d,p)
 ****
 36  37  40 0
 6-311+G(2d,p)
 ****
 1  2  3  4  5  16  17  18  19  20  21  22  23  24 0
 3-21G
 ****
 26  27  29  30  31  38  39 41  42  43  44  45  46  47  48 0
 3-21G
 ****


