%nproc=1
%NoSave
%Mem=1900MB
#P OB98/GEN NMR

erre ene a

0 1
  C     -172.836     315.660     278.255
  O     -173.699     314.536     278.081
  P     -174.145     313.753     279.417
  C     -176.701     314.083     279.037
  O     -175.621     313.171     279.148
  C     -177.745     313.570     278.043
  O     -177.284     313.714     276.681
  C     -178.077     312.088     278.201
  O     -178.978     311.861     279.267
  C     -178.732     311.789     276.856
  O     -180.119     312.182     276.894
  C     -177.944     312.692     275.897
  N     -177.090     309.290     272.230
  C     -178.283     309.769     272.733
  N     -179.412     309.298     272.158
  N     -178.364     310.639     273.710
  C     -177.158     311.048     274.172
  C     -175.911     310.644     273.760
  C     -175.832     309.655     272.699
  O     -174.805     309.164     272.241
  N     -174.918     311.278     274.453
  C     -175.564     312.096     275.268
  N     -176.929     311.984     275.140
  O     -174.400     314.937     280.454
  O     -173.138     312.772     279.916
  H     -180.504     311.941     276.026
  H     -174.267     314.620     281.369
  H     -177.085     308.614     271.484
  H     -175.096     312.785     275.957
  H     -178.603     313.201     275.185
  H     -178.715     310.731     276.601
  H     -179.425     308.680     271.356
  H     -177.156     311.485     278.300
  H     -180.296     309.666     272.479
  H     -178.660     314.169     278.168
  H     -176.332     315.057     278.693
  H     -177.146     314.243     280.023
  P     -179.246     310.324     279.683
  C     -178.802     310.618     282.229
  O     -179.742     310.379     281.203
  O     -177.771     309.714     279.775
  O     -180.117     309.576     278.725
  H     -177.787     308.753     279.578
  H     -178.102     311.416     281.937
  H     -178.241     309.704     282.428
  H     -179.319     310.925     283.131
  H     -172.614     316.090     277.301
  H     -171.928     315.343     278.723
  H     -173.319     316.389     278.871

 3  4  5  6  7  8  9  10  11  12  23  26  30  31  33  0
 6-311+G(2d,p)
 ****
 35  36  37  38 0
 6-311+G(2d,p)
 ****
 1  2  13  14  15  16  17  18  19  20  21  22  24  25  27  28  29 0
 3-21G
 ****
 32  34  39  40  41  42  43  44  45  46  47  48  49 0
 3-21G
 ****


