%nproc=1
%NoSave
%Mem=1900MB
#P OB98/GEN NMR

erre ene a

0 1
  C     -339.676      -7.855     303.520
  O     -339.333      -6.760     302.689
  H     -339.061      -7.814     304.422
  H     -339.478      -8.796     302.997
  H     -340.730      -7.801     303.804
  P     -340.279      -6.502     301.422
  C     -339.751      -3.944     301.150
  O     -339.662      -5.258     300.610
  C     -338.515      -3.129     300.760
  O     -337.363      -3.571     301.500
  C     -338.098      -3.285     299.304
  O     -338.973      -2.630     298.414
  C     -336.701      -2.683     299.347
  O     -336.735      -1.260     299.227
  C     -336.204      -3.103     300.759
  N     -335.149      -4.102     300.688
  C     -334.136      -3.968     301.653
  O     -334.204      -3.075     302.490
  N     -333.080      -4.836     301.611
  C     -333.020      -5.732     300.677
  N     -331.916      -6.541     300.669
  C     -334.057      -5.902     299.642
  C     -335.088      -5.053     299.708
  O     -341.595      -5.883     302.093
  O     -340.530      -7.703     300.575
  H     -335.806      -0.972     299.095
  H     -341.415      -5.160     302.717
  H     -333.965      -6.679     298.886
  H     -335.897      -5.115     298.986
  H     -335.820      -2.234     301.300
  H     -336.077      -3.059     298.536
  H     -338.011      -4.353     299.057
  H     -338.710      -2.073     301.010
  H     -331.209      -6.354     301.368
  H     -339.857      -3.981     302.245
  H     -331.723      -7.219     299.954
  H     -340.660      -3.478     300.751
  P     -339.560      -3.362     297.125
  C     -342.011      -2.754     297.689
  O     -340.942      -2.619     296.748
  O     -339.686      -4.847     297.243
  O     -338.597      -2.881     295.948
  H     -338.568      -1.922     295.812
  H     -342.869      -2.223     297.333
  H     -341.708      -2.351     298.633
  H     -342.256      -3.789     297.805

 6  7  8  9  10  11  12  13  14  15  16  26  30  31  32  33  35 0
 6-311+G(2d,p)
 ****
 37  38 0
 6-311+G(2d,p)
 ****
 1  2  3  4  5  17  18  19  20  21  22  23  24  25 0
 3-21G
 ****
 27  28  29  34  36  39  40  41  42  43  44  45  46 0
 3-21G
 ****


