%nproc=1
%NoSave
%Mem=1900MB
#P OB98/GEN NMR

erre ene a

0 1
  C      -12.422     138.699     184.083
  O      -11.869     137.907     183.051
  H      -11.621     138.988     184.768
  H      -13.175     138.132     184.637
  H      -12.870     139.603     183.661
  P      -12.894     137.346     181.951
  C      -11.908     139.293     180.581
  O      -13.082     138.567     180.924
  C      -12.064     139.948     179.208
  O      -11.766     138.960     178.190
  C      -13.476     140.477     178.944
  O      -13.390     141.701     178.219
  C      -14.099     139.407     178.065
  O      -15.149     139.917     177.248
  C      -12.884     138.898     177.289
  N      -15.378     136.018     173.896
  C      -15.273     137.355     174.041
  N      -14.570     138.042     174.967
  C      -13.896     137.202     175.771
  C      -13.907     135.819     175.747
  C      -14.701     135.219     174.755
  N      -14.836     133.857     174.616
  N      -13.121     135.311     176.763
  C      -12.631     136.370     177.380
  N      -13.086     137.536     176.826
  O      -14.157     136.759     182.483
  O      -11.964     136.341     181.125
  H      -15.786     140.388     177.822
  H      -11.089     136.731     180.941
  H      -15.828     137.954     173.324
  H      -11.963     136.346     178.234
  H      -12.661     139.513     176.409
  H      -14.518     138.611     178.694
  H      -14.044     140.630     179.863
  H      -11.315     140.742     179.108
  H      -11.041     138.623     180.569
  H      -15.414     133.510     173.867
  H      -14.325     133.243     175.235
  H      -11.747     140.056     181.349
  P      -14.111     143.000     178.823
  C      -11.942     144.392     178.674
  O      -12.998     143.929     179.510
  O      -15.332     142.747     179.643
  O      -14.479     143.834     177.504
  H      -15.346     144.265     177.632
  H      -11.272     144.997     179.248
  H      -12.350     144.973     177.873
  H      -11.411     143.554     178.272

 6  7  8  9  10  11  12  13  14  15  25  28  32  33  34  35 0
 6-311+G(2d,p)
 ****
 36  39  40 0
 6-311+G(2d,p)
 ****
 1  2  3  4  5  16  17  18  19  20  21  22  23  24 0
 3-21G
 ****
 26  27  29  30  31  37  38  41  42  43  44  45  46  47 0
 3-21G
 ****
 48 0
 3-21G
 ****


