%nproc=1
%NoSave
%Mem=1900MB
#P OB98/GEN NMR

erre ene a

0 1
  C     -476.439     656.836     263.221
  O     -475.645     657.853     263.781
  P     -474.052     657.801     263.829
  C     -473.578     659.132     261.621
  O     -473.488     657.897     262.326
  C     -472.192     659.583     261.116
  O     -471.701     658.581     260.181
  C     -472.286     660.914     260.355
  O     -471.220     661.813     260.647
  C     -472.441     660.471     258.899
  O     -472.095     661.474     257.956
  C     -471.594     659.197     258.874
  N     -471.386     657.879     253.971
  C     -470.643     658.829     254.639
  N     -469.902     659.660     253.890
  N     -470.683     658.971     255.944
  C     -471.569     658.169     256.564
  C     -472.342     657.180     255.992
  C     -472.277     657.002     254.571
  O     -472.994     656.245     253.912
  N     -473.171     656.594     256.924
  C     -472.915     657.243     258.045
  N     -471.975     658.230     257.868
  O     -473.434     656.796     264.749
  O     -473.697     659.271     264.407
  H     -471.163     661.712     258.127
  H     -472.906     659.176     264.965
  H     -471.369     657.870     252.948
  H     -473.395     657.058     258.995
  H     -470.545     659.424     258.701
  H     -473.502     660.238     258.750
  H     -469.975     659.654     252.889
  H     -473.173     661.474     260.659
  H     -469.550     660.508     254.314
  H     -471.492     659.617     261.962
  H     -473.974     659.864     262.332
  H     -474.284     659.051     260.798
  P     -471.234     663.406     260.698
  C     -471.201     663.946     263.212
  O     -471.995     663.858     262.044
  O     -472.249     663.854     259.551
  O     -469.913     664.064     260.489
  H     -471.919     664.647     259.099
  H     -471.871     663.975     264.084
  H     -470.593     664.838     263.190
  H     -470.551     663.060     263.300
  H     -477.472     657.101     263.309
  H     -476.261     655.918     263.740
  H     -476.188     656.716     262.188

 3  4  5  6  7  8  9  10  11  12  23  26  30  31 0
 6-311+G(2d,p)
 ****
 33  35  36  37  38 0
 6-311+G(2d,p)
 ****
 1  2  13  14  15  16  17  18  19  20  21  22  24  25 0
 3-21G
 ****
 27  28  29  32  34  39  40  41  42  43  44  45  46  47  48  49 0
 3-21G
 ****


