%nproc=1
%NoSave
%Mem=1900MB
#P OB98/GEN NMR

erre ene a

0 1
  C       34.813     -49.663    -121.999
  O       34.891     -50.885    -121.294
  H       35.198     -48.845    -121.384
  H       35.423     -49.738    -122.904
  H       33.777     -49.457    -122.286
  P       34.088     -50.970    -119.906
  C       36.326     -50.931    -118.577
  O       35.068     -50.315    -118.814
  C       36.732     -50.705    -117.125
  O       37.095     -49.320    -116.921
  C       35.619     -50.995    -116.123
  O       35.507     -52.373    -115.819
  C       36.108     -50.203    -114.923
  O       37.171     -50.919    -114.268
  C       36.654     -48.931    -115.591
  N       34.884     -44.599    -113.515
  C       35.927     -45.394    -113.191
  N       36.344     -46.520    -113.806
  C       35.572     -46.795    -114.868
  C       34.480     -46.074    -115.326
  C       34.135     -44.924    -114.594
  N       33.054     -44.128    -114.903
  N       33.925     -46.682    -116.435
  C       34.681     -47.740    -116.651
  N       35.668     -47.869    -115.711
  O       34.129     -52.527    -119.537
  O       32.707     -50.406    -119.915
  H       37.559     -50.313    -113.609
  H       33.484     -52.726    -118.832
  H       36.497     -45.089    -112.318
  H       34.549     -48.444    -117.462
  H       37.518     -48.514    -115.062
  H       35.325     -50.038    -114.178
  H       34.661     -50.581    -116.458
  H       37.620     -51.316    -116.916
  H       37.073     -50.485    -119.243
  H       32.802     -43.417    -114.236
  H       32.407     -44.442    -115.610
  H       36.252     -52.002    -118.786
  P       34.054     -52.925    -115.408
  C       34.510     -52.824    -112.852
  O       33.744     -52.337    -113.947
  O       34.327     -54.477    -115.130
  O       32.992     -52.710    -116.435
  H       33.544     -55.014    -115.361
  H       34.191     -52.343    -111.951
  H       35.546     -52.615    -113.020
  H       34.370     -53.881    -112.761

 6  7  8  9  10  11  12  13  14  15  25  28  32  33  34  35 0
 6-311+G(2d,p)
 ****
 36  39  40 0
 6-311+G(2d,p)
 ****
 1  2  3  4  5  16  17  18  19  20  21  22  23  24 0
 3-21G
 ****
 26  27  29  30  31  37  38  41  42  43  44  45  46  47 0
 3-21G
 ****
 48 0
 3-21G
 ****


