%nproc=1
%NoSave
%Mem=1900MB
#P OB98/GEN NMR

erre ene a

0 1
  C      331.278    -195.466     409.977
  O      330.195    -194.700     409.437
  P      329.657    -193.365     410.146
  C      330.140    -191.215     408.807
  O      329.248    -192.307     409.007
  C      330.202    -190.796     407.336
  O      330.780    -191.842     406.529
  C      328.846    -190.485     406.711
  O      328.402    -189.199     407.091
  C      329.157    -190.646     405.225
  O      329.788    -189.462     404.711
  C      330.150    -191.818     405.234
  N      328.812    -195.092     401.543
  C      329.458    -193.905     401.504
  N      329.774    -193.095     402.534
  C      329.370    -193.624     403.704
  C      328.697    -194.818     403.895
  C      328.411    -195.573     402.742
  N      327.737    -196.772     402.780
  N      328.424    -195.018     405.230
  C      328.947    -193.968     405.838
  N      329.528    -193.097     404.959
  O      330.574    -192.814     411.189
  O      328.253    -193.778     410.788
  H      329.994    -189.621     403.770
  H      328.070    -193.223     411.569
  H      329.760    -193.567     400.520
  H      328.928    -193.800     406.909
  H      330.949    -191.676     404.498
  H      328.264    -190.831     404.619
  H      328.111    -191.243     407.008
  H      330.864    -189.921     407.260
  H      331.139    -191.519     409.141
  H      327.540    -197.236     401.904
  H      327.394    -197.114     403.666
  H      329.806    -190.372     409.421
  P      327.223    -189.036     408.160
  C      326.951    -186.604     408.931
  O      326.603    -187.569     407.963
  O      327.580    -189.382     409.570
  O      326.064    -189.990     407.602
  H      325.537    -190.326     408.348
  H      326.329    -186.743     409.819
  H      326.760    -185.606     408.518
  H      328.004    -186.683     409.203
  H      331.468    -196.309     409.346
  H      331.020    -195.806     410.958
  H      332.155    -194.855     410.030

 3  4  5  6  7  8  9  10  11  12  22  25  29  30  31  32 0
 6-311+G(2d,p)
 ****
 33  36  37 0
 6-311+G(2d,p)
 ****
 1  2  13  14  15  16  17  18  19  20  21  23  24  26 0
 3-21G
 ****
 27  28  34  35  38  39  40  41  42  43  44  45  46  47  48 0
 3-21G
 ****


