%nproc=1
%NoSave
%Mem=1900MB
#P OB98/GEN NMR

erre ene a

0 1
  C     -199.955    -892.560     181.434
  O     -199.075    -893.560     181.954
  P     -197.795    -893.050     182.784
  C     -198.380    -893.750     185.222
  O     -198.261    -892.700     184.279
  C     -199.857    -893.970     185.600
  O     -200.640    -894.350     184.459
  C     -200.054    -895.090     186.607
  O     -199.724    -894.640     187.917
  C     -201.539    -895.410     186.430
  O     -202.371    -894.620     187.292
  C     -201.788    -895.050     184.941
  N     -202.086    -896.220     184.124
  C     -203.236    -896.940     184.469
  O     -203.915    -896.590     185.435
  N     -203.555    -898.040     183.727
  C     -202.801    -898.410     182.742
  N     -203.167    -899.530     182.056
  C     -201.567    -897.700     182.365
  C     -201.261    -896.610     183.092
  O     -197.491    -891.600     182.150
  O     -196.606    -893.950     182.691
  H     -203.297    -894.860     187.053
  H     -196.534    -891.430     182.175
  H     -200.950    -898.050     181.550
  H     -200.364    -896.030     182.882
  H     -202.639    -894.360     184.863
  H     -201.743    -896.470     186.659
  H     -199.446    -895.960     186.334
  H     -200.248    -893.020     186.007
  H     -204.020    -900.000     182.341
  H     -197.790    -893.530     186.120
  H     -202.640    -899.900     181.277
  H     -197.953    -894.660     184.785
  P     -198.232    -894.880     188.429
  C     -197.720    -892.390     188.694
  O     -197.413    -893.580     187.999
  O     -197.682    -895.980     187.377
  O     -198.057    -895.350     189.841
  H     -196.805    -896.290     187.646
  H     -196.971    -891.640     188.457
  H     -197.711    -892.560     189.774
  H     -198.703    -892.010     188.389
  H     -200.759    -893.031     180.907
  H     -199.415    -891.923     180.765
  H     -200.350    -891.978     182.240

 3  4  5  6  7  8  9  10  11  12  13  21  23  27  28  29  30  32 0
 6-311+G(2d,p)
 ****
 34  35 0
 6-311+G(2d,p)
 ****
 1  2  14  15  16  17  18  19  20  22  24  25  26 0
 3-21G
 ****
 31  33  36  37  38  39  40  41  42  43  44  45  46 0
 3-21G
 ****


