%nproc=1
%NoSave
%Mem=1900MB
#P OB98/GEN NMR

erre ene a

0 1
  C     1463.608     835.898    2679.648
  O     1462.560     835.338    2678.871
  H     1463.779     836.917    2679.313
  H     1464.522     835.327    2679.507
  H     1463.336     835.909    2680.708
  P     1462.149     833.799    2679.123
  C     1459.651     834.182    2679.726
  O     1460.969     833.814    2680.187
  C     1458.720     834.417    2680.886
  O     1458.639     833.169    2681.670
  C     1459.202     835.548    2681.863
  O     1458.220     836.553    2682.068
  C     1459.751     834.758    2683.029
  O     1459.744     835.512    2684.265
  C     1458.901     833.483    2683.073
  N     1459.544     832.347    2683.708
  C     1459.098     831.987    2684.986
  O     1458.175     832.572    2685.599
  N     1459.723     830.923    2685.552
  C     1460.768     830.183    2685.023
  O     1461.287     829.265    2685.574
  C     1461.218     830.658    2683.696
  C     1460.606     831.692    2683.088
  O     1463.297     832.884    2679.452
  O     1461.420     833.382    2677.753
  H     1458.910     836.000    2684.255
  H     1462.016     832.808    2677.236
  H     1459.375     830.649    2686.438
  H     1462.028     830.095    2683.218
  H     1460.938     832.032    2682.105
  H     1457.953     833.652    2683.553
  H     1460.802     834.505    2682.822
  H     1460.037     836.102    2681.399
  H     1457.712     834.649    2680.504
  H     1459.288     833.362    2679.083
  H     1459.752     835.079    2679.127
  P     1457.757     837.623    2680.982
  C     1455.183     837.267    2681.513
  O     1456.229     837.260    2680.564
  O     1458.698     837.951    2679.866
  O     1457.556     838.978    2681.890
  H     1457.750     839.719    2681.264
  H     1454.264     837.001    2681.033
  H     1455.094     838.245    2681.938
  H     1455.399     836.560    2682.287

 6  7  8  9  10  11  12  13  14  15  16  26  31  32  33  34  35 0
 6-311+G(2d,p)
 ****
 36  37 0
 6-311+G(2d,p)
 ****
 1  2  3  4  5  17  18  19  20  21  22  23  24  25 0
 3-21G
 ****
 27  28  29  30  38  39  40  41  42  43  44  45 0
 3-21G
 ****


