%nproc=1
%NoSave
%Mem=1900MB
#P OB98/GEN NMR

erre ene a

0 1
  C     -205.790     110.534    -273.817
  O     -204.823     109.760    -273.093
  P     -204.385     110.268    -271.638
  C     -205.485     108.381    -270.224
  O     -204.285     108.998    -270.662
  C     -205.195     106.993    -269.644
  O     -204.788     106.060    -270.664
  C     -204.069     106.986    -268.616
  O     -204.531     107.385    -267.334
  C     -203.691     105.514    -268.607
  O     -204.627     104.774    -267.796
  C     -203.848     105.126    -270.082
  N     -199.185     103.071    -270.643
  C     -200.186     102.816    -269.767
  N     -201.392     103.421    -269.667
  C     -201.529     104.368    -270.613
  C     -200.598     104.735    -271.573
  C     -199.379     104.043    -271.569
  N     -198.364     104.303    -272.465
  N     -201.089     105.754    -272.363
  C     -202.303     105.988    -271.897
  N     -202.607     105.177    -270.836
  O     -205.691     111.032    -271.115
  O     -203.193     111.167    -271.647
  H     -205.520     105.049    -268.072
  H     -205.431     111.793    -270.563
  H     -199.992     102.029    -269.046
  H     -202.986     106.721    -272.295
  H     -204.261     104.117    -270.207
  H     -202.699     105.337    -268.185
  H     -203.221     107.589    -268.960
  H     -206.117     106.615    -269.181
  H     -206.191     108.297    -271.057
  H     -197.530     103.744    -272.422
  H     -198.512     105.006    -273.173
  H     -205.967     109.023    -269.478
  P     -203.423     107.827    -266.259
  C     -204.415     110.210    -265.989
  O     -204.108     108.977    -265.378
  O     -202.346     108.608    -267.156
  O     -202.809     106.697    -265.507
  H     -201.455     108.512    -266.763
  H     -205.127     110.747    -265.358
  H     -204.861     110.063    -266.976
  H     -203.505     110.815    -266.087
  H     -205.980     110.073    -274.764
  H     -205.412     111.523    -273.971
  H     -206.700     110.584    -273.256

 3  4  5  6  7  8  9  10  11  12  22  25  29  30  31  32 0
 6-311+G(2d,p)
 ****
 33  36  37 0
 6-311+G(2d,p)
 ****
 1  2  13  14  15  16  17  18  19  20  21  23  24  26 0
 3-21G
 ****
 27  28  34  35  38  39  40  41  42  43  44  45  46  47  48 0
 3-21G
 ****


