%nproc=1
%NoSave
%Mem=1900MB
#P OB98/GEN NMR

erre ene a

0 1
  C      187.601      49.343       4.998
  O      187.538      49.785       6.341
  P      187.018      48.812       7.511
  C      184.834      50.184       7.690
  O      185.420      48.909       7.446
  C      183.506      50.010       8.424
  O      182.671      49.086       7.703
  C      183.632      49.447       9.835
  O      184.084      50.437      10.744
  C      182.213      48.937      10.066
  O      181.345      50.023      10.428
  C      181.835      48.404       8.669
  N      181.973      46.955       8.556
  C      181.128      46.183       9.360
  O      180.312      46.712      10.114
  N      181.204      44.815       9.272
  C      182.063      44.265       8.468
  N      182.049      42.908       8.370
  C      183.012      45.041       7.645
  C      182.907      46.366       7.731
  O      187.606      49.077       8.855
  O      187.298      47.341       6.962
  H      180.434      49.719      10.253
  H      188.200      47.000       7.185
  H      183.717      44.535       7.003
  H      183.551      47.006       7.147
  H      180.804      48.682       8.425
  H      182.147      48.178      10.853
  H      184.334      48.602       9.846
  H      183.000      50.986       8.446
  H      181.273      42.428       8.817
  H      184.651      50.671       6.729
  H      182.465      42.430       7.582
  H      185.530      50.797       8.272
  P      185.254      50.028      11.762
  C      183.735      49.541      13.810
  O      184.588      49.007      12.808
  O      185.490      51.367      12.605
  O      186.501      49.543      11.102
  H      186.284      51.835      12.282
  H      183.190      48.714      14.273
  H      183.015      50.240      13.375
  H      184.332      50.044      14.574
  H      187.971      50.134       4.379
  H      186.623      49.060       4.669
  H      188.257      48.501       4.930

 3  4  5  6  7  8  9  10  11  12  13  23  27  28  29  30  32 0
 6-311+G(2d,p)
 ****
 34  35 0
 6-311+G(2d,p)
 ****
 1  2  14  15  16  17  18  19  20  21  22  24  25  26 0
 3-21G
 ****
 31  33  36  37  38  39  40  41  42  43  44  45  46 0
 3-21G
 ****


