%nproc=1
%NoSave
%Mem=1900MB
#P OB98/GEN NMR

erre ene a

0 1
  C     -227.456     598.977     983.805
  O     -228.859     598.814     983.568
  P     -229.534     599.903     982.607
  C     -229.089     600.561     980.126
  O     -229.176     599.518     981.080
  C     -228.666     600.017     978.755
  O     -227.345     599.447     978.777
  C     -229.589     598.916     978.244
  O     -230.767     599.484     977.688
  C     -228.697     598.230     977.207
  O     -228.759     598.930     975.942
  C     -227.298     598.359     977.823
  N     -224.212     594.345     977.452
  C     -224.553     595.282     976.502
  N     -223.976     595.161     975.290
  N     -225.398     596.267     976.726
  C     -225.896     596.262     977.986
  C     -225.620     595.397     979.012
  C     -224.692     594.313     978.751
  O     -224.353     593.448     979.555
  N     -226.269     595.753     980.157
  C     -227.049     596.752     979.783
  N     -226.804     597.145     978.498
  O     -228.689     601.235     982.886
  O     -231.002     600.121     982.877
  H     -228.174     598.484     975.300
  H     -229.232     601.884     983.358
  H     -223.565     593.587     977.205
  H     -227.778     597.252     980.427
  H     -226.547     598.611     977.074
  H     -229.028     597.200     977.004
  H     -223.318     594.433     975.041
  H     -229.835     598.219     979.051
  H     -224.206     595.858     974.582
  H     -228.666     600.852     978.048
  H     -228.370     601.316     980.468
  H     -230.067     601.064     980.067
  P     -231.998     599.773     978.672
  C     -232.790     601.776     980.132
  O     -231.932     601.310     979.090
  O     -231.585     598.989     980.016
  O     -233.328     599.293     978.155
  H     -232.365     598.499     980.354
  H     -232.310     602.619     980.643
  H     -233.009     600.995     980.854
  H     -233.732     602.137     979.670
  H     -227.112     598.200     984.456
  H     -227.280     599.929     984.261
  H     -226.929     598.924     982.875

 3  4  5  6  7  8  9  10  11  12  23  26  30  31 0
 6-311+G(2d,p)
 ****
 33  35  36  37  38 0
 6-311+G(2d,p)
 ****
 1  2  13  14  15  16  17  18  19  20  21  22  24  25 0
 3-21G
 ****
 27  28  29  32  34  39  40  41  42  43  44  45  46  47  48  49 0
 3-21G
 ****


