%nproc=1
%NoSave
%Mem=1900MB
#P OB98/GEN NMR

erre ene a

0 1
  C     -149.341    -239.728    -109.530
  O     -149.241    -238.863    -110.644
  H     -148.732    -240.617    -109.719
  H     -150.382    -240.037    -109.404
  H     -148.983    -239.239    -108.620
  P     -149.715    -237.344    -110.440
  C     -151.949    -236.075    -110.826
  O     -151.166    -237.222    -111.128
  C     -153.262    -236.105    -111.612
  O     -152.974    -235.770    -113.008
  C     -153.977    -237.467    -111.596
  O     -155.390    -237.252    -111.562
  C     -153.622    -238.051    -112.955
  O     -154.558    -239.032    -113.389
  C     -153.612    -236.786    -113.811
  N     -154.342    -238.016    -118.627
  C     -155.245    -237.686    -117.637
  N     -156.556    -237.749    -117.956
  N     -154.893    -237.328    -116.430
  C     -153.552    -237.283    -116.248
  C     -152.553    -237.591    -117.139
  C     -152.952    -238.006    -118.471
  O     -152.199    -238.329    -119.383
  N     -151.316    -237.485    -116.550
  C     -151.569    -237.131    -115.297
  N     -152.911    -237.000    -115.068
  O     -148.754    -236.541    -111.442
  O     -149.625    -236.828    -109.043
  H     -154.215    -239.442    -114.208
  H     -147.978    -236.200    -110.953
  H     -154.661    -238.303    -119.535
  H     -150.828    -236.983    -114.529
  H     -154.621    -236.439    -114.065
  H     -152.627    -238.510    -112.922
  H     -156.901    -237.991    -118.873
  H     -153.680    -238.118    -110.764
  H     -157.232    -237.471    -117.252
  H     -153.921    -235.318    -111.224
  H     -151.388    -235.175    -111.097
  H     -152.153    -236.052    -109.750
  P     -156.229    -237.947    -110.380
  C     -157.337    -240.266    -109.945
  O     -156.464    -239.492    -110.755
  O     -157.686    -237.306    -110.550
  O     -155.672    -237.697    -109.013
  H     -158.105    -237.199    -109.673
  H     -157.385    -241.265    -110.325
  H     -158.315    -239.832    -109.959
  H     -156.969    -240.284    -108.940

 6  7  8  9  10  11  12  13  14  15  26  29  33  34 0
 6-311+G(2d,p)
 ****
 36  38  39  40  41 0
 6-311+G(2d,p)
 ****
 1  2  3  4  5  16  17  18  19  20  21  22  23  24  25 0
 3-21G
 ****
 27  28  30  31  32  35  37  42  43  44  45  46  47 0
 3-21G
 ****
 48  49 0
 3-21G
 ****


