%nproc=1
%NoSave
%Mem=1900MB
#P OB98/GEN NMR

erre ene a

0 1
  C     -194.921      48.740    -207.703
  O     -194.366      48.562    -206.398
  P     -193.439      47.271    -206.178
  C     -192.429      47.949    -203.888
  O     -193.253      47.037    -204.599
  C     -193.240      49.101    -203.282
  O     -194.320      48.595    -202.452
  C     -192.405      50.045    -202.414
  O     -192.947      51.359    -202.567
  C     -192.694      49.560    -201.007
  O     -192.408      50.571    -200.043
  C     -194.177      49.173    -201.138
  N     -194.629      48.259    -200.092
  C     -195.963      48.357    -199.694
  O     -196.689      49.233    -200.170
  N     -196.437      47.492    -198.740
  C     -195.631      46.638    -198.192
  N     -196.159      45.810    -197.250
  C     -194.200      46.538    -198.535
  C     -193.775      47.369    -199.486
  O     -191.995      47.765    -206.662
  O     -193.892      46.071    -206.947
  H     -192.968      51.352    -200.246
  H     -191.614      47.119    -207.284
  H     -193.562      45.825    -198.036
  H     -192.743      47.370    -199.810
  H     -194.812      50.068    -201.097
  H     -192.087      48.677    -200.777
  H     -191.343      50.050    -202.672
  H     -193.696      49.663    -204.105
  H     -197.148      45.903    -197.046
  H     -191.670      48.361    -204.557
  H     -195.625      45.110    -196.756
  H     -191.883      47.402    -203.113
  P     -191.968      52.535    -203.042
  C     -193.538      53.237    -204.949
  O     -192.932      53.617    -203.730
  O     -191.271      51.872    -204.327
  O     -190.953      53.050    -202.080
  H     -190.587      52.470    -204.675
  H     -194.256      54.008    -205.239
  H     -194.068      52.286    -204.832
  H     -192.780      53.152    -205.733
  H     -195.515      49.630    -207.720
  H     -195.534      47.898    -207.948
  H     -194.130      48.826    -208.418

 3  4  5  6  7  8  9  10  11  12  13  21  23  27  28  29  30  32 0
 6-311+G(2d,p)
 ****
 34  35 0
 6-311+G(2d,p)
 ****
 1  2  14  15  16  17  18  19  20  22  24  25  26 0
 3-21G
 ****
 31  33  36  37  38  39  40  41  42  43  44  45  46 0
 3-21G
 ****


