%nproc=1
%NoSave
%Mem=1900MB
#P OB98/GEN NMR

erre ene a

0 1
  C       -9.751    -601.622    -162.712
  O      -10.490    -600.755    -161.849
  P      -11.088    -601.389    -160.504
  C      -13.183    -602.752    -159.814
  O      -12.544    -601.995    -160.828
  C      -14.410    -603.498    -160.359
  O      -15.404    -602.551    -160.858
  C      -14.095    -604.456    -161.506
  O      -14.995    -605.564    -161.409
  C      -14.454    -603.646    -162.741
  O      -14.656    -604.491    -163.877
  C      -15.691    -602.905    -162.231
  N      -18.860    -600.911    -165.717
  C      -18.810    -602.129    -165.119
  N      -17.918    -602.593    -164.213
  C      -17.025    -601.628    -163.907
  C      -16.937    -600.356    -164.437
  C      -17.904    -600.006    -165.391
  N      -17.940    -598.778    -166.024
  N      -15.854    -599.682    -163.904
  C      -15.291    -600.540    -163.073
  N      -15.984    -601.723    -163.015
  O      -11.412    -600.102    -159.604
  O      -10.150    -602.315    -159.802
  H      -15.582    -604.830    -163.841
  H      -10.768    -600.037    -158.872
  H      -19.600    -602.829    -165.408
  H      -14.398    -600.366    -162.508
  H      -16.592    -603.540    -162.249
  H      -13.645    -602.940    -162.971
  H      -13.055    -604.810    -161.533
  H      -14.877    -604.049    -159.529
  H      -13.492    -602.101    -158.994
  H      -18.653    -598.614    -166.713
  H      -17.212    -598.111    -165.824
  H      -12.456    -603.455    -159.374
  P      -14.338    -606.993    -161.051
  C      -12.652    -608.540    -162.274
  O      -13.584    -607.489    -162.382
  O      -15.607    -607.970    -160.947
  O      -13.522    -606.999    -159.803
  H      -15.401    -608.723    -160.375
  H      -12.764    -609.198    -163.145
  H      -12.798    -609.129    -161.367
  H      -11.644    -608.126    -162.278
  H       -9.413    -601.072    -163.565
  H      -10.379    -602.427    -163.032
  H       -8.908    -602.016    -162.184

 3  4  5  6  7  8  9  10  11  12  22  25  29  30  31  32 0
 6-311+G(2d,p)
 ****
 33  36  37 0
 6-311+G(2d,p)
 ****
 1  2  13  14  15  16  17  18  19  20  21  23  24  26 0
 3-21G
 ****
 27  28  34  35  38  39  40  41  42  43  44  45  46  47  48 0
 3-21G
 ****


