%nproc=1
%NoSave
%Mem=1900MB
#P OB98/GEN NMR

erre ene a

0 1
  C     -908.743    -978.557    1267.265
  O     -908.928    -978.354    1265.868
  P     -909.887    -977.218    1265.262
  C     -908.896    -974.971    1266.142
  O     -909.041    -975.868    1265.019
  C     -908.022    -973.773    1265.781
  O     -906.667    -974.159    1265.620
  C     -908.401    -973.060    1264.472
  O     -909.576    -972.269    1264.666
  C     -907.136    -972.248    1264.199
  O     -907.105    -971.053    1264.961
  C     -906.024    -973.241    1264.698
  N     -905.370    -973.952    1263.590
  C     -904.412    -973.230    1262.873
  O     -904.181    -972.052    1263.166
  N     -903.735    -973.887    1261.871
  C     -904.050    -975.101    1261.514
  N     -903.351    -975.663    1260.528
  C     -905.157    -975.848    1262.184
  C     -905.748    -975.222    1263.193
  O     -911.160    -976.992    1266.049
  O     -910.229    -977.697    1263.762
  H     -906.188    -970.717    1264.951
  H     -911.115    -977.414    1263.516
  H     -905.405    -976.863    1261.848
  H     -906.541    -975.723    1263.756
  H     -905.241    -972.715    1265.277
  H     -907.022    -971.989    1263.148
  H     -908.573    -973.813    1263.695
  H     -908.070    -973.069    1266.643
  H     -902.627    -975.146    1260.082
  H     -908.433    -975.549    1266.976
  H     -903.516    -976.614    1260.175
  H     -909.900    -974.667    1266.461
  P     -910.687    -972.208    1263.520
  C     -912.502    -973.776    1264.493
  O     -912.114    -972.404    1264.218
  O     -910.427    -973.059    1262.330
  O     -910.727    -970.646    1263.102
  H     -910.961    -970.581    1262.173
  H     -913.265    -973.768    1265.264
  H     -911.668    -974.360    1264.789
  H     -912.949    -974.174    1263.560
  H     -908.062    -979.367    1267.421
  H     -909.683    -978.789    1267.719
  H     -908.345    -977.667    1267.705

 3  4  5  6  7  8  9  10  11  12  13  23  27  28  29  30  32 0
 6-311+G(2d,p)
 ****
 34  35 0
 6-311+G(2d,p)
 ****
 1  2  14  15  16  17  18  19  20  21  22  24  25  26 0
 3-21G
 ****
 31  33  36  37  38  39  40  41  42  43  44  45  46 0
 3-21G
 ****


