%nproc=1
%NoSave
%Mem=1900MB
#P OB98/GEN NMR

erre ene a

0 1
  C       23.233      70.498    -115.889
  O       23.726      70.717    -117.203
  P       23.831      69.459    -118.194
  C       26.290      68.780    -117.725
  O       24.915      68.456    -117.564
  C       26.942      67.902    -118.794
  O       28.313      68.343    -118.994
  C       26.990      66.410    -118.450
  O       26.869      65.685    -119.679
  C       28.395      66.230    -117.906
  O       28.827      64.873    -117.964
  C       29.166      67.190    -118.808
  N       34.226      66.466    -118.893
  C       33.229      65.922    -119.625
  N       31.902      66.167    -119.545
  C       31.646      67.075    -118.587
  C       32.555      67.687    -117.742
  C       33.909      67.354    -117.924
  N       34.928      67.914    -117.187
  N       31.909      68.541    -116.870
  C       30.632      68.445    -117.185
  N       30.430      67.591    -118.231
  O       24.585      70.075    -119.464
  O       22.530      68.842    -118.578
  H       28.295      64.355    -117.331
  H       23.974      70.113    -120.226
  H       33.534      65.201    -120.379
  H       29.824      68.967    -116.688
  H       29.365      66.757    -119.797
  H       28.432      66.553    -116.859
  H       26.219      66.090    -117.742
  H       26.412      68.061    -119.741
  H       26.803      68.611    -116.774
  H       35.878      67.727    -117.468
  H       34.722      68.713    -116.595
  H       26.388      69.837    -117.993
  P       26.170      64.245    -119.609
  C       28.212      62.988    -120.595
  O       27.345      63.166    -119.491
  O       25.605      64.033    -121.093
  O       25.084      64.143    -118.587
  H       24.825      63.448    -121.071
  H       29.210      62.736    -120.223
  H       28.281      63.891    -121.211
  H       27.843      62.163    -121.211
  H       23.222      71.424    -115.353
  H       23.866      69.800    -115.382
  H       22.239      70.105    -115.942

 3  4  5  6  7  8  9  10  11  12  22  25  29  30  31  32 0
 6-311+G(2d,p)
 ****
 33  36  37 0
 6-311+G(2d,p)
 ****
 1  2  13  14  15  16  17  18  19  20  21  23  24  26 0
 3-21G
 ****
 27  28  34  35  38  39  40  41  42  43  44  45  46  47  48 0
 3-21G
 ****


