%nproc=1
%NoSave
%Mem=1900MB
#P OB98/GEN NMR

erre ene a

0 1
  C     -364.627    1001.831    -153.303
  O     -364.747    1000.421    -153.430
  P     -363.914     999.701    -154.607
  C     -366.173     998.941    -155.625
  O     -364.871     998.559    -155.181
  C     -366.740     997.916    -156.593
  O     -366.223     998.173    -157.929
  C     -366.360     996.466    -156.296
  O     -367.189     995.904    -155.272
  C     -366.617     995.803    -157.638
  O     -368.028     995.515    -157.778
  C     -366.202     996.887    -158.640
  N     -363.475     994.634    -162.258
  C     -364.825     994.601    -162.022
  N     -365.580     993.889    -162.883
  N     -365.410     995.207    -161.010
  C     -364.552     995.932    -160.261
  C     -363.175     996.055    -160.393
  C     -362.548     995.314    -161.469
  O     -361.343     995.271    -161.694
  N     -362.659     996.886    -159.438
  C     -363.702     997.302    -158.755
  N     -364.866     996.726    -159.184
  O     -362.793     998.888    -153.803
  O     -363.301    1000.630    -155.607
  H     -368.225     994.768    -157.175
  H     -362.012     998.740    -154.370
  H     -363.085     994.170    -163.055
  H     -363.646     998.009    -157.916
  H     -366.909     996.982    -159.462
  H     -366.068     994.860    -157.753
  H     -365.210     993.503    -163.743
  H     -365.296     996.381    -156.049
  H     -366.579     993.872    -162.753
  H     -367.829     998.033    -156.621
  H     -366.112     999.915    -156.124
  H     -366.825     999.037    -154.756
  P     -366.480     995.653    -153.842
  C     -368.240     993.778    -153.405
  O     -367.617     994.975    -152.950
  O     -366.346     997.127    -153.248
  O     -365.168     994.950    -153.917
  H     -365.602     997.171    -152.601
  H     -367.486     993.138    -153.915
  H     -369.043     994.025    -154.078
  H     -368.617     993.238    -152.540
  H     -365.231    1002.168    -152.486
  H     -364.956    1002.300    -154.207
  H     -363.604    1002.087    -153.120

 3  4  5  6  7  8  9  10  11  12  23  26  30  31  33  0
 6-311+G(2d,p)
 ****
 35  36  37  38 0
 6-311+G(2d,p)
 ****
 1  2  13  14  15  16  17  18  19  20  21  22  24  25  27  28  29 0
 3-21G
 ****
 32  34  39  40  41  42  43  44  45  46  47  48  49 0
 3-21G
 ****


