%nproc=1
%NoSave
%Mem=1900MB
#P OB98/GEN NMR

erre ene a

0 1
  C     -123.398     -37.579     -65.900
  O     -122.224     -38.144     -66.456
  P     -121.610     -37.484     -67.782
  C     -120.536     -35.562     -66.348
  O     -121.351     -35.937     -67.442
  C     -119.522     -34.499     -66.779
  O     -118.774     -34.059     -65.613
  C     -118.504     -34.977     -67.823
  O     -118.224     -33.867     -68.684
  C     -117.290     -35.316     -66.977
  O     -116.083     -35.312     -67.724
  C     -117.374     -34.223     -65.907
  N     -116.628     -34.542     -64.689
  C     -115.239     -34.476     -64.741
  O     -114.605     -34.186     -65.752
  N     -114.587     -34.787     -63.576
  C     -115.166     -35.212     -62.416
  O     -114.531     -35.495     -61.409
  C     -116.632     -35.309     -62.437
  C     -117.283     -34.967     -63.548
  O     -122.889     -37.464     -68.739
  O     -120.428     -38.212     -68.323
  H     -123.719     -37.292     -68.262
  H     -116.114     -34.560     -68.343
  H     -113.580     -34.709     -63.579
  H     -117.129     -35.658     -61.539
  H     -118.364     -35.031     -63.588
  H     -117.018     -33.270     -66.316
  H     -117.416     -36.314     -66.541
  H     -118.873     -35.822     -68.412
  H     -120.076     -33.629     -67.157
  H     -119.997     -36.438     -65.979
  H     -121.170     -35.191     -65.536
  P     -118.281     -34.106     -70.275
  C     -120.644     -32.985     -70.357
  O     -119.821     -34.074     -70.708
  O     -117.925     -35.669     -70.338
  O     -117.340     -33.266     -71.072
  H     -118.445     -36.201     -69.713
  H     -121.523     -32.983     -71.007
  H     -120.121     -32.033     -70.477
  H     -120.974     -33.093     -69.320
  H     -123.679     -38.128     -65.026
  H     -124.190     -37.623     -66.618
  H     -123.212     -36.559     -65.636

 3  4  5  6  7  8  9  10  11  12  13  24  28  29  30  31  32 0
 6-311+G(2d,p)
 ****
 33  34 0
 6-311+G(2d,p)
 ****
 1  2  14  15  16  17  18  19  20  21  22  23  25  26  27 0
 3-21G
 ****
 35  36  37  38  39  40  41  42  43  44  45 0
 3-21G
 ****


