%nproc=1
%NoSave
%Mem=1900MB
#P OB98/GEN NMR

erre ene a

0 1
  C       73.132     441.018    -332.726
  O       73.523     439.889    -333.483
  H       73.979     441.343    -332.115
  H       72.296     440.771    -332.063
  H       72.848     441.837    -333.392
  P       72.418     439.116    -334.347
  C       71.249     436.827    -334.121
  O       71.905     437.893    -333.440
  C       70.606     435.862    -333.124
  O       71.659     435.244    -332.330
  C       69.622     436.535    -332.158
  O       68.531     435.638    -331.927
  C       70.446     436.711    -330.901
  O       69.631     436.816    -329.752
  C       71.363     435.482    -330.940
  N       72.575     435.697    -330.148
  C       72.546     435.227    -328.826
  O       71.547     434.655    -328.393
  N       73.624     435.479    -328.012
  C       74.621     436.183    -328.460
  N       75.634     436.426    -327.589
  C       74.677     436.717    -329.834
  C       73.634     436.439    -330.617
  O       72.814     438.738    -335.735
  O       71.167     440.115    -334.347
  H       70.182     436.678    -328.952
  H       71.217     440.714    -335.117
  H       75.524     437.307    -330.155
  H       73.581     436.804    -331.640
  H       70.840     434.595    -330.553
  H       71.048     437.629    -330.976
  H       69.248     437.494    -332.539
  H       70.118     435.056    -333.684
  H       75.538     436.057    -326.645
  H       72.002     436.295    -334.714
  H       76.440     436.996    -327.805
  H       70.491     437.232    -334.794
  P       67.013     436.124    -332.130
  C       65.307     437.651    -330.980
  O       66.566     437.000    -330.855
  O       66.051     435.039    -332.507
  O       67.114     437.216    -333.306
  H       66.279     437.219    -333.814
  H       65.101     438.204    -330.087
  H       64.541     436.920    -331.131
  H       65.332     438.319    -331.815

 6  7  8  9  10  11  12  13  14  15  16  26  30  31  32  33  35 0
 6-311+G(2d,p)
 ****
 37  38 0
 6-311+G(2d,p)
 ****
 1  2  3  4  5  17  18  19  20  21  22  23  24  25 0
 3-21G
 ****
 27  28  29  34  36  39  40  41  42  43  44  45  46 0
 3-21G
 ****


