%nproc=1
%NoSave
%Mem=1900MB
#P OB98/GEN NMR

erre ene a

0 1
  C      -51.678     -61.294    -173.864
  O      -50.580     -61.343    -172.968
  P      -50.426     -62.542    -171.912
  C      -47.998     -61.942    -171.263
  O      -49.353     -62.017    -170.843
  C      -47.206     -61.058    -170.303
  O      -47.460     -61.469    -168.946
  C      -45.695     -61.129    -170.481
  O      -45.279     -60.384    -171.615
  C      -45.221     -60.594    -169.135
  O      -45.294     -59.160    -169.112
  C      -46.271     -61.187    -168.172
  N      -45.796     -62.381    -167.481
  C      -44.692     -62.217    -166.640
  O      -44.164     -61.116    -166.492
  N      -44.225     -63.308    -165.950
  C      -44.792     -64.465    -166.103
  N      -44.330     -65.493    -165.342
  C      -45.922     -64.692    -167.021
  C      -46.371     -63.618    -167.667
  O      -50.109     -63.869    -172.513
  O      -51.785     -62.519    -171.077
  H      -44.605     -58.833    -169.723
  H      -52.505     -63.067    -171.478
  H      -46.354     -65.677    -167.125
  H      -47.211     -63.697    -168.345
  H      -46.563     -60.440    -167.425
  H      -44.193     -60.881    -168.889
  H      -45.372     -62.170    -170.598
  H      -47.557     -60.024    -170.421
  H      -43.678     -65.255    -164.604
  H      -47.967     -61.502    -172.265
  H      -44.885     -66.326    -165.188
  H      -47.577     -62.951    -171.308
  P      -44.223     -61.072    -172.607
  C      -45.341     -59.562    -174.394
  O      -44.137     -60.111    -173.891
  O      -45.001     -62.368    -173.129
  O      -42.916     -61.413    -171.975
  H      -44.691     -63.163    -172.657
  H      -45.090     -58.763    -175.097
  H      -45.944     -59.142    -173.585
  H      -45.908     -60.331    -174.925
  H      -51.597     -60.423    -174.480
  H      -52.591     -61.253    -173.307
  H      -51.675     -62.169    -174.480

 3  4  5  6  7  8  9  10  11  12  13  23  27  28  29  30  32 0
 6-311+G(2d,p)
 ****
 34  35 0
 6-311+G(2d,p)
 ****
 1  2  14  15  16  17  18  19  20  21  22  24  25  26 0
 3-21G
 ****
 31  33  36  37  38  39  40  41  42  43  44  45  46 0
 3-21G
 ****


