%nproc=1
%NoSave
%Mem=1900MB
#P OB98/GEN NMR

erre ene a

0 1
  C      276.545     427.695    -288.540
  O      276.179     426.393    -288.957
  H      277.191     428.139    -289.302
  H      277.100     427.639    -287.594
  H      275.657     428.322    -288.416
  P      275.091     425.625    -288.066
  C      276.848     423.984    -286.991
  O      275.867     425.000    -286.798
  C      277.542     423.668    -285.671
  O      278.438     424.728    -285.277
  C      276.595     423.548    -284.491
  O      275.808     422.378    -284.534
  C      277.579     423.589    -283.328
  O      278.210     422.312    -283.147
  C      278.602     424.640    -283.837
  N      278.431     425.935    -283.192
  C      278.837     426.013    -281.849
  O      279.309     425.013    -281.296
  N      278.667     427.191    -281.175
  C      278.162     428.218    -281.788
  N      278.011     429.360    -281.067
  C      277.746     428.198    -283.204
  C      277.905     427.033    -283.836
  O      274.761     424.332    -288.948
  O      273.896     426.434    -287.677
  H      277.501     421.688    -282.896
  H      275.554     423.824    -289.204
  H      277.338     429.083    -283.677
  H      277.626     426.933    -284.881
  H      279.625     424.297    -283.654
  H      277.093     423.843    -282.383
  H      275.959     424.447    -284.419
  H      278.132     422.756    -285.800
  H      278.286     429.333    -280.091
  H      277.580     424.293    -287.748
  H      277.594     430.208    -281.424
  H      276.337     423.095    -287.372
  P      274.267     422.408    -284.081
  C      274.775     421.311    -281.806
  O      274.275     422.455    -282.467
  O      273.414     421.339    -284.662
  O      273.797     423.899    -284.464
  H      274.298     424.610    -284.028
  H      274.729     421.462    -280.748
  H      275.791     421.145    -282.099
  H      274.184     420.459    -282.071

 6  7  8  9  10  11  12  13  14  15  16  26  30  31  32  33  35 0
 6-311+G(2d,p)
 ****
 37  38 0
 6-311+G(2d,p)
 ****
 1  2  3  4  5  17  18  19  20  21  22  23  24  25 0
 3-21G
 ****
 27  28  29  34  36  39  40  41  42  43  44  45  46 0
 3-21G
 ****


