%nproc=1
%NoSave
%Mem=1900MB
#P OB98/GEN NMR

erre ene a

0 1
  C      138.594    -665.942    -377.043
  O      137.854    -665.282    -376.043
  P      137.004    -666.123    -374.962
  C      139.006    -666.105    -373.325
  O      137.631    -665.746    -373.536
  C      139.730    -665.018    -372.547
  O      139.907    -663.840    -373.337
  C      139.001    -664.569    -371.286
  O      139.143    -665.518    -370.244
  C      139.676    -663.215    -371.020
  O      140.914    -663.400    -370.324
  C      139.934    -662.696    -372.462
  N      138.958    -661.696    -372.848
  C      139.203    -660.386    -372.398
  O      140.184    -660.166    -371.671
  N      138.322    -659.391    -372.708
  C      137.255    -659.667    -373.419
  N      136.411    -658.650    -373.697
  C      136.935    -661.036    -373.901
  C      137.823    -661.984    -373.575
  O      136.874    -667.574    -375.260
  O      135.586    -665.339    -374.936
  H      141.395    -662.544    -370.378
  H      135.056    -665.547    -375.764
  H      136.039    -661.220    -374.458
  H      137.675    -663.010    -373.877
  H      140.946    -662.272    -372.528
  H      139.052    -662.563    -370.416
  H      137.947    -664.412    -371.520
  H      140.727    -665.410    -372.276
  H      136.649    -657.726    -373.332
  H      139.477    -666.218    -374.304
  H      135.542    -658.768    -374.220
  H      139.051    -667.077    -372.814
  P      137.869    -665.988    -369.409
  C      137.275    -668.032    -370.853
  O      137.729    -667.591    -369.600
  O      136.620    -665.201    -369.640
  O      138.353    -665.849    -367.892
  H      137.622    -665.425    -367.360
  H      137.540    -669.092    -370.960
  H      137.744    -667.448    -371.656
  H      136.200    -667.926    -370.914
  H      139.086    -665.218    -377.659
  H      137.934    -666.532    -377.644
  H      139.324    -666.577    -376.586

 3  4  5  6  7  8  9  10  11  12  13  23  27  28  29  30  32 0
 6-311+G(2d,p)
 ****
 34  35 0
 6-311+G(2d,p)
 ****
 1  2  14  15  16  17  18  19  20  21  22  24  25  26 0
 3-21G
 ****
 31  33  36  37  38  39  40  41  42  43  44  45  46 0
 3-21G
 ****


