%nproc=1
%NoSave
%Mem=1900MB
#P OB98/GEN NMR

erre ene a

0 1
  C     -105.720     136.792     280.802
  O     -106.336     136.262     281.959
  H     -105.540     137.859     280.957
  H     -106.375     136.668     279.934
  H     -104.764     136.294     280.622
  P     -106.742     134.710     281.917
  C     -108.730     135.007     280.270
  O     -108.311     134.655     281.582
  C     -109.985     134.218     279.906
  O     -110.500     134.673     278.634
  C     -109.753     132.723     279.742
  O     -109.668     132.049     280.983
  C     -110.983     132.330     278.937
  O     -112.119     132.103     279.789
  C     -111.202     133.565     278.034
  N     -110.775     133.323     276.660
  C     -111.786     132.990     275.763
  O     -112.972     132.896     276.088
  N     -111.386     132.727     274.481
  C     -110.099     132.727     274.030
  O     -109.799     132.408     272.882
  C     -109.069     133.101     275.017
  C     -109.448     133.368     276.271
  O     -106.666     134.274     283.456
  O     -105.885     133.854     281.044
  H     -105.846     133.771     283.618
  H     -112.848     131.818     279.203
  H     -112.104     132.473     273.819
  H     -108.038     133.118     274.689
  H     -108.707     133.627     277.020
  H     -112.266     133.839     278.012
  H     -110.821     131.405     278.378
  H     -108.859     132.540     279.128
  H     -110.749     134.407     280.673
  H     -107.935     134.763     279.554
  H     -108.921     136.085     280.231
  P     -108.374     131.151     281.282
  C     -109.359     128.994     280.145
  O     -108.869     129.625     281.318
  O     -108.101     131.507     282.818
  O     -107.232     131.419     280.361
  H     -108.920     131.642     283.328
  H     -109.637     127.986     280.372
  H     -108.596     128.993     279.395
  H     -110.213     129.527     279.784

 6  7  8  9  10  11  12  13  14  15  16  27  31  32  33  34  35 0
 6-311+G(2d,p)
 ****
 36  37 0
 6-311+G(2d,p)
 ****
 1  2  3  4  5  17  18  19  20  21  22  23  24  25 0
 3-21G
 ****
 26  28  29  30  38  39  40  41  42  43  44  45 0
 3-21G
 ****


