%nproc=1
%NoSave
%Mem=1900MB
#P OB98/GEN NMR

erre ene a

0 1
  C      353.272     171.015    -170.767
  O      352.441     172.159    -171.009
  P      351.751     172.998    -169.831
  C      349.325     172.464    -170.531
  O      350.298     173.481    -170.305
  C      348.389     172.827    -171.687
  O      349.080     172.731    -172.947
  C      347.166     171.927    -171.827
  O      346.190     172.234    -170.846
  C      346.745     172.225    -173.262
  O      345.968     173.430    -173.335
  C      348.108     172.409    -173.962
  N      348.504     171.236    -174.730
  C      348.151     171.227    -176.083
  O      347.485     172.148    -176.560
  N      348.537     170.159    -176.853
  C      349.156     169.159    -176.309
  N      349.522     168.133    -177.124
  C      349.468     169.088    -174.868
  C      349.117     170.153    -174.149
  O      352.607     174.094    -169.282
  O      351.429     171.921    -168.689
  H      345.860     173.632    -174.284
  H      351.478     172.357    -167.817
  H      349.957     168.224    -174.448
  H      349.319     170.188    -173.085
  H      348.076     173.274    -174.634
  H      346.139     171.424    -173.696
  H      347.470     170.876    -171.748
  H      348.080     173.873    -171.553
  H      349.301     168.214    -178.108
  H      348.738     172.344    -169.614
  H      350.008     167.309    -176.802
  H      349.844     171.523    -170.743
  P      345.535     171.057    -169.982
  C      343.059     171.516    -170.482
  O      344.088     171.554    -169.510
  O      346.396     170.491    -168.904
  O      345.180     169.939    -171.075
  H      345.256     169.058    -170.660
  H      342.095     171.479    -169.969
  H      343.155     170.637    -171.125
  H      343.105     172.422    -171.092
  H      353.618     170.622    -171.700
  H      352.707     170.266    -170.252
  H      354.111     171.304    -170.169

 3  4  5  6  7  8  9  10  11  12  13  23  27  28  29  30  32 0
 6-311+G(2d,p)
 ****
 34  35 0
 6-311+G(2d,p)
 ****
 1  2  14  15  16  17  18  19  20  21  22  24  25  26 0
 3-21G
 ****
 31  33  36  37  38  39  40  41  42  43  44  45  46 0
 3-21G
 ****


