%nproc=1
%NoSave
%Mem=1900MB
#P OB98/GEN NMR

erre ene a

0 1
  C      246.626     106.064     -88.758
  O      246.141     106.509     -87.488
  P      245.827     105.374     -86.400
  C      247.224     104.378     -84.449
  O      247.219     104.876     -85.780
  C      248.571     103.729     -84.133
  O      248.804     102.557     -84.946
  C      249.763     104.643     -84.399
  O      249.882     105.629     -83.390
  C      250.900     103.630     -84.438
  O      251.291     103.264     -83.103
  C      250.236     102.427     -85.129
  N      253.757     101.069     -88.583
  C      253.757     101.033     -87.232
  N      252.780     101.418     -86.383
  C      251.710     101.862     -87.062
  C      251.563     101.956     -88.438
  C      252.653     101.536     -89.216
  N      252.660     101.589     -90.590
  N      250.321     102.468     -88.763
  C      249.740     102.701     -87.602
  N      250.536     102.342     -86.547
  O      245.338     104.136     -87.287
  O      244.796     105.776     -85.396
  H      252.071     102.677     -83.179
  H      244.379     104.003     -87.174
  H      254.663     100.650     -86.771
  H      248.753     103.131     -87.479
  H      250.535     101.471     -84.679
  H      251.792     104.005     -84.948
  H      249.656     105.126     -85.381
  H      248.565     103.425     -83.079
  H      246.421     103.648     -84.312
  H      253.513     101.342     -91.070
  H      251.880     102.014     -91.069
  H      247.015     105.206     -83.761
  P      249.540     107.148     -83.781
  C      247.236     108.060     -84.471
  O      247.949     107.248     -83.551
  O      249.662     107.104     -85.373
  O      250.361     108.179     -83.088
  H      249.215     106.325     -85.750
  H      246.173     108.009     -84.223
  H      247.383     107.694     -85.491
  H      247.573     109.094     -84.391
  H      246.796     106.910     -89.391
  H      245.901     105.420     -89.211
  H      247.543     105.530     -88.622

 3  4  5  6  7  8  9  10  11  12  22  25  29  30  31  32 0
 6-311+G(2d,p)
 ****
 33  36  37 0
 6-311+G(2d,p)
 ****
 1  2  13  14  15  16  17  18  19  20  21  23  24  26 0
 3-21G
 ****
 27  28  34  35  38  39  40  41  42  43  44  45  46  47  48 0
 3-21G
 ****


