%nproc=1
%NoSave
%Mem=1900MB
#P OB98/GEN NMR

erre ene a

0 1
  C     -246.097    -272.639    -276.232
  O     -245.275    -272.306    -277.334
  H     -247.104    -272.257    -276.420
  H     -245.708    -272.173    -275.321
  H     -246.154    -273.722    -276.099
  P     -243.823    -272.975    -277.446
  C     -241.529    -272.620    -276.309
  O     -242.844    -272.111    -276.509
  C     -240.939    -272.092    -275.004
  O     -240.756    -270.643    -275.120
  C     -241.833    -272.335    -273.761
  O     -240.959    -272.517    -272.636
  C     -242.573    -271.016    -273.669
  O     -243.222    -270.864    -272.432
  C     -241.435    -270.047    -273.996
  N     -241.882    -268.697    -274.293
  C     -241.690    -267.725    -273.315
  O     -241.141    -267.939    -272.233
  N     -242.164    -266.474    -273.627
  C     -242.795    -266.116    -274.774
  O     -243.180    -264.968    -275.007
  C     -243.000    -267.193    -275.760
  C     -242.540    -268.410    -275.475
  O     -243.319    -273.211    -278.834
  O     -243.975    -274.346    -276.636
  H     -244.136    -275.081    -277.260
  H     -242.594    -270.994    -271.696
  H     -242.031    -265.760    -272.924
  H     -243.514    -266.944    -276.672
  H     -242.675    -269.235    -276.180
  H     -240.713    -270.015    -273.169
  H     -243.355    -270.972    -274.442
  H     -242.481    -273.215    -273.870
  H     -239.935    -272.528    -274.857
  H     -240.909    -272.302    -277.154
  H     -241.565    -273.715    -276.287
  P     -241.063    -273.760    -271.625
  C     -242.553    -274.559    -269.673
  O     -242.293    -273.524    -270.618
  O     -239.780    -274.082    -270.935
  O     -241.545    -274.997    -272.529
  H     -241.112    -275.817    -272.200
  H     -243.390    -274.285    -269.065
  H     -241.692    -274.700    -269.053
  H     -242.772    -275.469    -270.192

 6  7  8  9  10  11  12  13  14  15  16  27  31  32  33  34  35 0
 6-311+G(2d,p)
 ****
 36  37 0
 6-311+G(2d,p)
 ****
 1  2  3  4  5  17  18  19  20  21  22  23  24  25 0
 3-21G
 ****
 26  28  29  30  38  39  40  41  42  43  44  45 0
 3-21G
 ****


