%nproc=1
%NoSave
%Mem=1900MB
#P OB98/GEN NMR

erre ene a

0 1
  C     -402.897     121.108     109.445
  O     -401.981     121.473     108.431
  H     -403.876     120.934     108.989
  H     -402.988     121.914     110.180
  H     -402.567     120.189     109.938
  P     -400.492     121.830     108.913
  C     -399.833     119.327     108.808
  O     -399.910     120.502     109.602
  C     -398.528     118.584     109.079
  O     -397.394     119.375     108.657
  C     -398.296     118.230     110.543
  O     -398.968     117.030     110.888
  C     -396.782     118.086     110.578
  O     -396.372     116.799     110.067
  C     -396.329     119.212     109.635
  N     -392.687     122.412     111.053
  C     -392.600     121.159     110.472
  N     -391.356     120.671     110.266
  N     -393.638     120.437     110.140
  C     -394.817     121.023     110.457
  C     -395.035     122.255     111.031
  C     -393.875     123.063     111.346
  O     -393.889     124.212     111.780
  N     -396.376     122.504     111.178
  C     -396.963     121.414     110.725
  N     -396.059     120.484     110.281
  O     -400.730     122.815     110.156
  O     -399.620     122.465     107.884
  H     -395.405     116.727     110.125
  H     -400.044     123.509     110.142
  H     -391.854     122.931     111.259
  H     -398.034     121.252     110.688
  H     -395.423     118.945     109.082
  H     -396.394     118.151     111.596
  H     -390.552     121.033     110.755
  H     -398.596     119.055     111.201
  H     -391.296     119.723     109.913
  H     -398.531     117.676     108.461
  H     -399.879     119.608     107.751
  H     -400.682     118.676     109.043
  P     -399.969     117.056     112.139
  C     -402.347     116.944     111.103
  O     -401.331     117.763     111.672
  O     -399.297     118.140     113.109
  O     -400.129     115.747     112.834
  H     -398.866     117.693     113.859
  H     -403.189     117.550     110.842
  H     -402.648     116.203     111.814
  H     -401.968     116.463     110.225

 6  7  8  9  10  11  12  13  14  15  26  29  33  34 0
 6-311+G(2d,p)
 ****
 36  38  39  40  41 0
 6-311+G(2d,p)
 ****
 1  2  3  4  5  16  17  18  19  20  21  22  23  24  25 0
 3-21G
 ****
 27  28  30  31  32  35  37  42  43  44  45  46  47 0
 3-21G
 ****
 48  49 0
 3-21G
 ****


