%nproc=1
%NoSave
%Mem=1900MB
#P OB98/GEN NMR

erre ene a

0 1
  C     -472.082    -899.170    -252.963
  O     -471.383    -898.120    -252.310
  H     -472.205    -900.000    -252.261
  H     -471.500    -899.520    -253.827
  H     -473.066    -898.820    -253.288
  P     -471.251    -896.730    -253.112
  C     -473.150    -895.560    -251.734
  O     -471.786    -895.600    -252.112
  C     -473.366    -894.560    -250.575
  O     -472.732    -895.090    -249.396
  C     -472.784    -893.170    -250.864
  O     -473.640    -892.200    -250.267
  C     -471.457    -893.200    -250.121
  O     -471.003    -891.890    -249.796
  C     -471.800    -894.080    -248.911
  N     -470.615    -894.680    -248.300
  C     -469.748    -893.810    -247.611
  O     -469.995    -892.600    -247.561
  N     -468.619    -894.330    -247.053
  C     -468.336    -895.580    -247.199
  N     -467.171    -896.020    -246.635
  C     -469.184    -896.520    -247.944
  C     -470.303    -896.010    -248.447
  O     -472.418    -896.870    -254.196
  O     -469.893    -896.480    -253.687
  H     -470.234    -891.970    -249.183
  H     -473.248    -897.210    -253.832
  H     -468.897    -897.560    -248.047
  H     -471.006    -896.630    -248.999
  H     -472.331    -893.490    -248.144
  H     -470.688    -893.680    -250.726
  H     -472.671    -892.970    -251.927
  H     -474.435    -894.510    -250.368
  H     -466.597    -895.330    -246.153
  H     -473.493    -896.550    -251.417
  H     -466.827    -896.960    -246.731
  H     -473.731    -895.270    -252.606
  P     -473.932    -890.840    -251.045
  C     -476.351    -891.250    -251.883
  O     -475.511    -890.510    -251.004
  O     -473.306    -890.700    -252.379
  O     -473.352    -889.730    -250.030
  H     -472.889    -889.040    -250.562
  H     -477.366    -890.935    -251.756
  H     -476.270    -892.293    -251.659
  H     -476.048    -891.078    -252.895

 6  7  8  9  10  11  12  13  14  15  16  26  30  31  32  33  35 0
 6-311+G(2d,p)
 ****
 37  38 0
 6-311+G(2d,p)
 ****
 1  2  3  4  5  17  18  19  20  21  22  23  24  25 0
 3-21G
 ****
 27  28  29  34  36  39  40  41  42  43  44  45  46 0
 3-21G
 ****


