%nproc=1
%NoSave
%Mem=1900MB
#P OB98/GEN NMR

erre ene a

0 1
  C     -204.317      13.206      66.162
  O     -203.780      14.304      65.453
  H     -205.408      13.268      66.130
  H     -203.992      13.233      67.205
  H     -204.002      12.269      65.697
  P     -202.182      14.437      65.426
  C     -201.861      12.930      63.335
  O     -201.623      13.108      64.724
  C     -201.089      11.715      62.836
  O     -201.389      11.481      61.440
  C     -199.576      11.868      62.905
  O     -199.075      11.668      64.214
  C     -199.132      10.787      61.933
  O     -199.078       9.499      62.567
  C     -200.241      10.829      60.859
  N     -199.798      11.490      59.636
  C     -199.739      10.685      58.503
  O     -200.035       9.491      58.509
  N     -199.287      11.290      57.362
  C     -198.863      12.582      57.255
  O     -198.401      13.043      56.222
  C     -198.962      13.390      58.484
  C     -199.409      12.813      59.603
  O     -201.777      14.255      66.965
  O     -201.664      15.714      64.854
  H     -201.569      15.123      67.358
  H     -198.680       8.891      61.913
  H     -199.226      10.719      56.534
  H     -198.639      14.422      58.432
  H     -199.472      13.385      60.525
  H     -200.557       9.812      60.597
  H     -198.137      10.986      61.537
  H     -199.275      12.845      62.508
  H     -201.416      10.836      63.408
  H     -201.523      13.817      62.790
  H     -202.937      12.804      63.172
  P     -197.581      12.151      64.544
  C     -198.413      14.484      65.423
  O     -197.605      13.757      64.515
  O     -196.822      11.751      63.196
  O     -197.018      11.555      65.787
  H     -197.371      11.862      62.403
  H     -198.293      15.533      65.247
  H     -198.118      14.255      66.426
  H     -199.439      14.214      65.283

 6  7  8  9  10  11  12  13  14  15  16  27  31  32  33  34  35 0
 6-311+G(2d,p)
 ****
 36  37 0
 6-311+G(2d,p)
 ****
 1  2  3  4  5  17  18  19  20  21  22  23  24  25 0
 3-21G
 ****
 26  28  29  30  38  39  40  41  42  43  44  45 0
 3-21G
 ****


