%nproc=1
%NoSave
%Mem=1900MB
#P OB98/GEN NMR

erre ene a

0 1
  C     -312.667     484.574     496.420
  O     -312.981     483.996     497.657
  P     -313.318     482.444     497.858
  C     -311.580     482.364     499.816
  O     -312.868     482.010     499.340
  C     -311.206     481.542     501.059
  O     -312.100     481.906     502.142
  C     -311.393     480.028     500.816
  O     -310.349     479.222     501.342
  C     -312.812     479.770     501.315
  O     -313.057     478.406     501.617
  C     -312.897     480.750     502.484
  N     -316.891     480.145     505.573
  C     -315.606     479.665     505.719
  N     -315.406     478.783     506.718
  N     -314.619     480.012     504.929
  C     -314.984     480.818     503.908
  C     -316.234     481.360     503.665
  C     -317.301     481.003     504.565
  O     -318.491     481.301     504.404
  N     -316.258     482.093     502.496
  C     -315.038     481.960     502.021
  N     -314.244     481.180     502.831
  O     -312.967     481.540     496.723
  O     -314.933     482.474     497.983
  H     -313.939     478.346     502.039
  H     -315.261     481.647     497.571
  H     -317.637     479.776     506.169
  H     -314.683     482.393     501.095
  H     -312.482     480.309     503.399
  H     -313.500     480.056     500.515
  H     -316.178     478.395     507.241
  H     -311.349     479.815     499.728
  H     -314.545     478.225     506.687
  H     -310.193     481.796     501.364
  H     -311.635     483.428     500.068
  H     -310.833     482.253     499.032
  P     -309.471     478.112     500.610
  C     -307.790     478.476     502.517
  O     -308.394     477.539     501.647
  O     -308.558     478.919     499.567
  O     -310.257     477.057     499.894
  H     -308.488     478.405     498.741
  H     -306.908     478.037     502.965
  H     -308.495     478.756     503.300
  H     -307.486     479.384     501.964
  H     -312.483     485.620     496.551
  H     -313.486     484.438     495.745
  H     -311.792     484.106     496.019

 3  4  5  6  7  8  9  10  11  12  23  26  30  31 0
 6-311+G(2d,p)
 ****
 33  35  36  37  38 0
 6-311+G(2d,p)
 ****
 1  2  13  14  15  16  17  18  19  20  21  22  24  25 0
 3-21G
 ****
 27  28  29  32  34  39  40  41  42  43  44  45  46  47  48  49 0
 3-21G
 ****


