%nproc=1
%NoSave
%Mem=1900MB
#P OB98/GEN NMR

erre ene a

0 1
  C        3.642      50.314     -30.842
  O        3.175      51.160     -31.880
  P        3.152      50.565     -33.371
  C        5.358      51.753     -34.051
  O        4.672      50.521     -33.883
  C        6.153      51.761     -35.357
  O        7.204      50.757     -35.274
  C        5.322      51.451     -36.612
  O        5.878      52.229     -37.678
  C        5.592      49.970     -36.814
  O        5.265      49.495     -38.108
  C        7.069      49.908     -36.436
  N        9.067      45.648     -38.430
  C        8.795      46.855     -38.975
  N        8.271      47.946     -38.379
  C        8.031      47.706     -37.078
  C        8.238      46.524     -36.389
  C        8.784      45.457     -37.121
  N        9.052      44.223     -36.564
  N        7.846      46.646     -35.073
  C        7.407      47.884     -34.968
  N        7.519      48.567     -36.147
  O        2.512      51.757     -34.224
  O        2.387      49.288     -33.530
  H        5.474      48.542     -38.176
  H        1.910      51.415     -34.912
  H        9.031      46.959     -40.030
  H        6.990      48.325     -34.073
  H        7.712      50.317     -37.225
  H        4.986      49.398     -36.101
  H        4.262      51.699     -36.502
  H        6.643      52.737     -35.459
  H        6.059      51.895     -33.222
  H        9.252      43.473     -37.211
  H        8.649      44.030     -35.655
  H        4.637      52.577     -34.025
  P        4.893      52.830     -38.794
  C        5.806      51.315     -40.656
  O        4.699      51.619     -39.830
  O        5.895      53.786     -39.598
  O        3.665      53.501     -38.286
  H        6.710      53.318     -39.853
  H        5.573      50.418     -41.236
  H        6.694      51.122     -40.047
  H        5.996      52.142     -41.346
  H        3.602      50.838     -29.910
  H        4.652      50.024     -31.045
  H        3.025      49.442     -30.788

 3  4  5  6  7  8  9  10  11  12  22  25  29  30  31  32 0
 6-311+G(2d,p)
 ****
 33  36  37 0
 6-311+G(2d,p)
 ****
 1  2  13  14  15  16  17  18  19  20  21  23  24  26 0
 3-21G
 ****
 27  28  34  35  38  39  40  41  42  43  44  45  46  47  48 0
 3-21G
 ****


