%nproc=1
%NoSave
%Mem=1900MB
#P OB98/GEN NMR

erre ene a

0 1
  C       69.771    -120.719     245.993
  O       70.791    -121.552     245.477
  H       69.940    -119.699     245.634
  H       69.809    -120.716     247.085
  H       68.785    -121.048     245.656
  P       70.638    -123.141     245.622
  C       69.513    -123.661     243.359
  O       70.699    -123.746     244.137
  C       69.849    -123.504     241.874
  O       70.180    -122.104     241.619
  C       71.053    -124.351     241.409
  O       70.816    -124.715     240.040
  C       72.180    -123.342     241.518
  O       73.336    -123.773     240.849
  C       71.472    -122.099     240.973
  N       72.191    -120.857     241.234
  C       73.449    -120.713     240.655
  O       73.968    -121.558     239.927
  N       74.110    -119.551     240.953
  C       73.649    -118.549     241.756
  O       74.276    -117.518     241.972
  C       72.326    -118.772     242.363
  C       71.669    -119.897     242.077
  O       69.487    -123.609     246.447
  O       72.038    -123.597     246.251
  H       71.945    -123.704     247.217
  H       74.065    -123.130     240.977
  H       75.022    -119.430     240.541
  H       71.943    -118.005     243.021
  H       70.691    -120.098     242.508
  H       71.294    -122.193     239.897
  H       72.460    -123.201     242.566
  H       71.195    -125.254     242.008
  H       68.955    -123.730     241.280
  H       68.939    -122.795     243.703
  H       68.916    -124.569     243.513
  P       71.034    -126.199     239.474
  C       68.846    -127.052     240.542
  O       69.610    -126.936     239.350
  O       72.045    -126.992     240.238
  O       71.500    -126.012     237.953
  H       72.150    -126.707     237.726
  H       67.927    -127.557     240.329
  H       68.636    -126.076     240.927
  H       69.400    -127.610     241.268

 6  7  8  9  10  11  12  13  14  15  16  27  31  32  33  34  35 0
 6-311+G(2d,p)
 ****
 36  37 0
 6-311+G(2d,p)
 ****
 1  2  3  4  5  17  18  19  20  21  22  23  24  25 0
 3-21G
 ****
 26  28  29  30  38  39  40  41  42  43  44  45 0
 3-21G
 ****


