%nproc=1
%NoSave
%Mem=1900MB
#P OB98/GEN NMR

erre ene a

0 1
  C      428.963    -293.847    -633.835
  O      429.276    -294.902    -634.731
  P      430.411    -294.613    -635.831
  C      432.017    -296.535    -635.083
  O      431.808    -295.129    -635.209
  C      433.200    -296.810    -634.154
  O      432.897    -296.362    -632.813
  C      433.571    -298.284    -634.019
  O      434.268    -298.739    -635.167
  C      434.412    -298.235    -632.745
  O      435.734    -297.758    -633.029
  C      433.648    -297.203    -631.893
  N      433.123    -300.878    -628.351
  C      434.156    -300.536    -629.162
  N      434.215    -299.555    -630.089
  C      433.044    -298.887    -630.151
  C      431.900    -299.129    -629.406
  C      431.964    -300.172    -628.465
  N      430.896    -300.519    -627.655
  N      430.891    -298.256    -629.759
  C      431.428    -297.485    -630.689
  N      432.730    -297.822    -630.950
  O      430.565    -293.025    -635.795
  O      430.100    -295.116    -637.206
  H      436.140    -298.373    -633.667
  H      430.785    -292.670    -636.682
  H      435.057    -301.133    -629.047
  H      430.918    -296.677    -631.191
  H      434.320    -296.550    -631.317
  H      434.511    -299.216    -632.257
  H      432.686    -298.890    -633.857
  H      434.059    -296.227    -634.520
  H      432.231    -296.961    -636.068
  H      430.979    -301.374    -627.120
  H      430.002    -300.099    -627.836
  H      431.100    -297.005    -634.693
  P      433.838    -300.162    -635.771
  C      434.186    -299.324    -638.183
  O      433.241    -299.799    -637.221
  O      432.524    -300.487    -634.920
  O      434.902    -301.205    -635.747
  H      431.906    -299.729    -634.898
  H      433.661    -299.165    -639.129
  H      434.979    -300.071    -638.338
  H      434.613    -298.379    -637.849
  H      428.198    -294.168    -633.159
  H      428.617    -292.999    -634.389
  H      429.838    -293.578    -633.281

 3  4  5  6  7  8  9  10  11  12  22  25  29  30  31  32 0
 6-311+G(2d,p)
 ****
 33  36  37 0
 6-311+G(2d,p)
 ****
 1  2  13  14  15  16  17  18  19  20  21  23  24  26 0
 3-21G
 ****
 27  28  34  35  38  39  40  41  42  43  44  45  46  47  48 0
 3-21G
 ****


