%nproc=1
%NoSave
%Mem=1900MB
#P OB98/GEN NMR

erre ene a

0 1
  C     -249.278     667.784    -477.250
  O     -248.249     667.919    -476.279
  P     -247.870     666.623    -475.412
  C     -248.573     665.833    -473.056
  O     -248.949     666.547    -474.222
  C     -249.579     666.054    -471.932
  O     -249.418     667.417    -471.425
  C     -251.053     665.893    -472.349
  O     -251.759     665.152    -471.340
  C     -251.586     667.326    -472.338
  O     -252.994     667.360    -472.136
  C     -250.756     667.926    -471.201
  N     -253.197     671.977    -469.427
  C     -253.330     670.643    -469.074
  N     -254.282     670.346    -468.164
  N     -252.592     669.686    -469.585
  C     -251.653     670.135    -470.459
  C     -251.431     671.419    -470.872
  C     -252.279     672.468    -470.357
  O     -252.284     673.649    -470.688
  N     -250.369     671.483    -471.758
  C     -249.969     670.229    -471.878
  N     -250.745     669.368    -471.146
  O     -246.523     667.083    -474.669
  O     -247.671     665.374    -476.191
  H     -253.248     668.304    -472.126
  H     -245.807     666.441    -474.869
  H     -253.814     672.676    -469.024
  H     -249.142     669.892    -472.509
  H     -251.105     667.548    -470.232
  H     -251.357     667.797    -473.301
  H     -254.869     671.035    -467.714
  H     -251.186     665.403    -473.334
  H     -254.376     669.385    -467.884
  H     -249.338     665.388    -471.098
  H     -247.576     666.177    -472.726
  H     -248.512     664.761    -473.289
  P     -253.213     664.642    -471.745
  C     -255.640     665.503    -471.304
  O     -254.257     665.676    -471.096
  O     -253.398     663.315    -470.852
  O     -253.384     664.363    -473.210
  H     -254.044     662.703    -471.271
  H     -255.870     664.537    -471.771
  H     -256.005     666.299    -471.944
  H     -256.161     665.549    -470.339
  H     -249.423     668.720    -477.748
  H     -250.187     667.492    -476.768
  H     -248.998     667.039    -477.965

 3  4  5  6  7  8  9  10  11  12  23  26  30  31  33  0
 6-311+G(2d,p)
 ****
 35  36  37  38 0
 6-311+G(2d,p)
 ****
 1  2  13  14  15  16  17  18  19  20  21  22  24  25  27  28  29 0
 3-21G
 ****
 32  34  39  40  41  42  43  44  45  46  47  48  49 0
 3-21G
 ****


