%nproc=1
%NoSave
%Mem=1900MB
#P OB98/GEN NMR

erre ene a

0 1
  C      451.609    -193.908    -131.700
  O      452.115    -193.503    -132.950
  H      451.210    -193.030    -131.185
  H      452.416    -194.339    -131.099
  H      450.804    -194.640    -131.811
  P      452.328    -194.609    -134.092
  C      449.897    -194.428    -134.950
  O      451.283    -194.321    -135.277
  C      449.168    -193.098    -135.157
  O      449.602    -192.148    -134.147
  C      449.468    -192.466    -136.520
  O      448.619    -192.912    -137.571
  C      449.254    -190.980    -136.232
  O      447.881    -190.605    -136.426
  C      449.644    -190.847    -134.756
  N      452.517    -186.610    -134.867
  C      451.208    -186.791    -135.308
  N      450.632    -185.719    -135.885
  N      450.571    -187.919    -135.205
  C      451.321    -188.936    -134.708
  C      452.615    -188.880    -134.251
  C      453.300    -187.601    -134.290
  O      454.439    -187.389    -133.902
  N      453.063    -190.112    -133.842
  C      452.062    -190.928    -134.132
  N      450.956    -190.251    -134.579
  O      451.738    -195.946    -133.428
  O      453.749    -194.823    -134.521
  H      447.801    -189.647    -136.243
  H      452.218    -196.721    -133.766
  H      452.954    -185.705    -134.947
  H      452.069    -192.007    -133.991
  H      448.931    -190.212    -134.208
  H      449.847    -190.364    -136.910
  H      451.105    -184.846    -136.066
  H      450.516    -192.612    -136.790
  H      449.755    -185.859    -136.390
  H      448.094    -193.252    -135.008
  H      449.846    -194.726    -133.902
  H      449.433    -195.212    -135.546
  P      449.093    -192.823    -139.095
  C      449.793    -195.352    -139.224
  O      449.019    -194.283    -139.729
  O      450.659    -192.553    -138.972
  O      448.407    -191.781    -139.926
  H      450.863    -191.593    -139.083
  H      449.592    -196.237    -139.791
  H      449.541    -195.521    -138.198
  H      450.832    -195.108    -139.301

 6  7  8  9  10  11  12  13  14  15  26  29  33  34 0
 6-311+G(2d,p)
 ****
 36  38  39  40  41 0
 6-311+G(2d,p)
 ****
 1  2  3  4  5  16  17  18  19  20  21  22  23  24  25 0
 3-21G
 ****
 27  28  30  31  32  35  37  42  43  44  45  46  47 0
 3-21G
 ****
 48  49 0
 3-21G
 ****


