%nproc=1
%NoSave
%Mem=1900MB
#P OB98/GEN NMR

erre ene a

0 1
  C       94.956    -228.911     146.609
  O       95.146    -230.139     147.285
  H       94.049    -228.438     146.993
  H       94.837    -229.076     145.535
  H       95.803    -228.243     146.791
  P       96.357    -231.087     146.817
  C       94.903    -232.742     145.453
  O       95.673    -232.532     146.627
  C       93.540    -233.334     145.818
  O       92.719    -233.506     144.642
  C       93.587    -234.715     146.463
  O       94.029    -234.693     147.814
  C       92.126    -235.120     146.334
  O       91.346    -234.428     147.324
  C       91.799    -234.602     144.908
  N       91.927    -235.640     143.884
  C       90.754    -236.320     143.531
  O       89.683    -236.042     144.071
  N       90.826    -237.327     142.601
  C       91.973    -237.645     142.077
  N       92.000    -238.681     141.195
  C       93.232    -236.941     142.405
  C       93.137    -235.968     143.311
  O       97.582    -231.068     147.673
  O       96.632    -230.661     145.297
  H       90.424    -234.722     147.221
  H       97.383    -231.212     144.965
  H       94.163    -237.251     141.952
  H       94.025    -235.413     143.615
  H       90.786    -234.190     144.870
  H       91.963    -236.192     146.477
  H       94.197    -235.403     145.865
  H       93.025    -232.602     146.461
  H       91.126    -239.165     141.027
  H       95.458    -233.418     144.794
  H       92.864    -239.160     140.965
  H       94.736    -231.792     144.934
  P       95.347    -235.528     148.188
  C       94.221    -237.848     148.587
  O       94.878    -236.724     149.151
  O       96.133    -234.539     149.166
  O       96.186    -235.976     147.028
  H       96.788    -234.002     148.675
  H       93.979    -238.545     149.362
  H       94.866    -238.317     147.873
  H       93.323    -237.529     148.101

 6  7  8  9  10  11  12  13  14  15  16  26  30  31  32  33  35 0
 6-311+G(2d,p)
 ****
 37  38 0
 6-311+G(2d,p)
 ****
 1  2  3  4  5  17  18  19  20  21  22  23  24  25 0
 3-21G
 ****
 27  28  29  34  36  39  40  41  42  43  44  45  46 0
 3-21G
 ****


