%nproc=1
%NoSave
%Mem=1900MB
#P OB98/GEN NMR

erre ene a

0 1
  C     -325.589     151.056    -129.230
  O     -325.570     152.077    -130.206
  H     -326.073     151.416    -128.317
  H     -326.158     150.205    -129.618
  H     -324.570     150.725    -129.006
  P     -324.790     153.424    -129.809
  C     -322.322     153.276    -130.580
  O     -323.651     153.644    -130.924
  C     -321.420     153.364    -131.811
  O     -321.856     152.356    -132.764
  C     -321.447     154.734    -132.514
  O     -320.115     155.212    -132.738
  C     -322.093     154.448    -133.858
  O     -321.566     155.252    -134.908
  C     -321.794     152.966    -134.063
  N     -322.739     151.903    -138.959
  C     -321.585     152.180    -138.314
  N     -321.388     152.359    -136.991
  C     -322.537     152.191    -136.312
  C     -323.783     151.883    -136.831
  C     -323.869     151.756    -138.226
  N     -325.053     151.527    -138.893
  N     -324.728     151.796    -135.822
  C     -324.069     152.091    -134.719
  N     -322.745     152.352    -134.966
  O     -323.963     152.996    -128.503
  O     -325.671     154.594    -129.541
  H     -320.599     155.128    -134.912
  H     -324.256     153.547    -127.752
  H     -320.705     152.281    -138.942
  H     -324.505     152.175    -133.729
  H     -320.784     152.804    -134.463
  H     -323.171     154.633    -133.782
  H     -322.009     155.483    -131.951
  H     -320.394     153.106    -131.513
  H     -322.312     152.246    -130.202
  H     -325.044     151.568    -139.897
  H     -325.914     151.530    -138.362
  H     -321.959     153.944    -129.792
  P     -319.778     156.678    -132.158
  C     -318.184     156.172    -130.168
  O     -318.307     156.630    -131.511
  O     -320.758     156.803    -130.899
  O     -320.008     157.776    -133.141
  H     -321.321     157.596    -130.990
  H     -317.155     156.195    -129.876
  H     -318.552     155.170    -130.098
  H     -318.752     156.807    -129.521

 6  7  8  9  10  11  12  13  14  15  25  28  32  33  34  35 0
 6-311+G(2d,p)
 ****
 36  39  40 0
 6-311+G(2d,p)
 ****
 1  2  3  4  5  16  17  18  19  20  21  22  23  24 0
 3-21G
 ****
 26  27  29  30  31  37  38  41  42  43  44  45  46  47  48 0
 3-21G
 ****


