%nproc=1
%NoSave
%Mem=1900MB
#P OB98/GEN NMR

erre ene a

0 1
  C     -139.293     -11.230    -131.058
  O     -139.626     -12.486    -130.457
  P     -139.669     -12.528    -128.847
  C     -138.419     -14.794    -128.558
  O     -139.635     -14.072    -128.408
  C     -138.658     -16.111    -129.292
  O     -138.597     -15.927    -130.719
  C     -137.630     -17.194    -128.988
  O     -137.898     -17.840    -127.752
  C     -137.855     -18.149    -130.155
  O     -138.967     -19.013    -129.872
  C     -138.196     -17.190    -131.307
  N     -136.172     -18.220    -135.839
  C     -137.349     -18.672    -135.271
  N     -138.106     -19.495    -136.031
  N     -137.746     -18.348    -134.071
  C     -136.903     -17.494    -133.438
  C     -135.711     -16.981    -133.893
  C     -135.266     -17.373    -135.212
  O     -134.219     -17.030    -135.750
  N     -135.140     -16.140    -132.972
  C     -135.998     -16.125    -131.970
  N     -137.079     -16.942    -132.200
  O     -141.171     -12.084    -128.518
  O     -138.664     -11.640    -128.193
  H     -138.787     -19.442    -129.013
  H     -141.212     -11.673    -127.633
  H     -135.911     -18.510    -136.766
  H     -135.889     -15.539    -131.065
  H     -139.038     -17.555    -131.903
  H     -136.990     -18.794    -130.343
  H     -137.897     -19.728    -136.990
  H     -136.612     -16.789    -129.029
  H     -138.993     -19.805    -135.644
  H     -139.665     -16.469    -129.030
  H     -137.986     -14.999    -127.575
  H     -137.698     -14.169    -129.097
  P     -136.671     -17.993    -126.727
  C     -137.770     -20.171    -125.840
  O     -137.224     -18.903    -125.530
  O     -136.553     -16.534    -126.082
  O     -135.392     -18.436    -127.355
  H     -135.630     -16.359    -125.808
  H     -137.159     -20.698    -126.578
  H     -138.786     -20.050    -126.225
  H     -137.810     -20.771    -124.926
  H     -139.298     -11.332    -132.123
  H     -138.320     -10.926    -130.733
  H     -140.013     -10.493    -130.767

 3  4  5  6  7  8  9  10  11  12  23  26  30  31  33  0
 6-311+G(2d,p)
 ****
 35  36  37  38 0
 6-311+G(2d,p)
 ****
 1  2  13  14  15  16  17  18  19  20  21  22  24  25  27  28  29 0
 3-21G
 ****
 32  34  39  40  41  42  43  44  45  46  47  48  49 0
 3-21G
 ****


