%nproc=1
%NoSave
%Mem=1900MB
#P OB98/GEN NMR

erre ene a

0 1
  C      283.068     899.259    -917.212
  O      283.115     897.966    -917.780
  H      283.814     899.883    -917.714
  H      283.305     899.209    -916.149
  H      282.081     899.701    -917.353
  P      281.997     896.915    -917.312
  C      282.579     895.000    -918.965
  O      281.646     896.006    -918.591
  C      281.853     893.819    -919.613
  O      281.129     893.092    -918.593
  C      280.858     894.237    -920.692
  O      280.903     893.278    -921.766
  C      279.510     894.142    -920.003
  O      278.425     893.934    -920.910
  C      279.749     892.994    -919.008
  N      278.835     893.060    -917.874
  C      277.870     892.046    -917.791
  O      277.809     891.174    -918.653
  N      276.955     892.094    -916.773
  C      276.937     893.113    -915.961
  N      275.983     893.114    -914.990
  C      277.903     894.229    -916.053
  C      278.808     894.137    -917.025
  O      280.685     897.816    -917.143
  O      282.327     896.135    -916.077
  H      278.505     894.601    -921.640
  H      280.109     897.472    -916.427
  H      277.831     895.060    -915.370
  H      279.551     894.920    -917.172
  H      279.623     892.020    -919.513
  H      279.313     895.078    -919.453
  H      281.047     895.231    -921.102
  H      282.607     893.133    -920.025
  H      275.339     892.332    -914.969
  H      283.094     894.643    -918.068
  H      275.857     893.867    -914.334
  H      283.327     895.427    -919.656
  P      280.991     893.860    -923.246
  C      283.597     893.763    -923.102
  O      282.453     894.538    -923.436
  O      280.005     895.122    -923.225
  O      280.607     892.887    -924.305
  H      279.192     894.920    -923.731
  H      284.482     894.339    -923.278
  H      283.619     892.881    -923.707
  H      283.551     893.486    -922.069

 6  7  8  9  10  11  12  13  14  15  16  26  30  31  32  33  35 0
 6-311+G(2d,p)
 ****
 37  38 0
 6-311+G(2d,p)
 ****
 1  2  3  4  5  17  18  19  20  21  22  23  24  25 0
 3-21G
 ****
 27  28  29  34  36  39  40  41  42  43  44  45  46 0
 3-21G
 ****


