%nproc=1
%NoSave
%Mem=1900MB
#P OB98/GEN NMR

erre ene a

0 1
  C     -349.608    -899.510     -35.870
  O     -349.728    -898.110     -35.715
  H     -348.666    -899.720     -36.373
  H     -350.435    -899.900     -36.472
  H     -349.604    -900.000     -34.887
  P     -351.049    -897.590     -34.952
  C     -351.446    -896.040     -37.020
  O     -351.389    -896.160     -35.606
  C     -351.425    -894.550     -37.429
  O     -352.671    -893.940     -36.980
  C     -350.272    -893.760     -36.782
  O     -349.906    -892.690     -37.678
  C     -350.951    -893.170     -35.558
  O     -350.190    -892.110     -35.041
  C     -352.308    -892.810     -36.163
  N     -355.140    -889.180     -33.953
  C     -354.269    -889.140     -34.991
  N     -353.556    -890.160     -35.525
  C     -353.841    -891.320     -34.893
  C     -354.701    -891.510     -33.818
  C     -355.366    -890.360     -33.339
  N     -356.230    -890.390     -32.272
  N     -354.694    -892.840     -33.437
  C     -353.860    -893.430     -34.271
  N     -353.319    -892.560     -35.163
  O     -350.496    -897.230     -33.493
  O     -352.188    -898.540     -34.902
  H     -349.394    -892.440     -34.567
  H     -350.602    -897.990     -32.899
  H     -354.132    -888.170     -35.441
  H     -353.597    -894.480     -34.252
  H     -352.259    -891.920     -36.810
  H     -351.051    -893.920     -34.763
  H     -349.393    -894.370     -36.562
  H     -351.404    -894.490     -38.520
  H     -352.360    -896.510     -37.370
  H     -350.580    -896.550     -37.458
  H     -356.647    -889.530     -31.966
  H     -356.381    -891.270     -31.779
  P     -348.553    -892.820     -38.533
  C     -346.936    -891.070     -37.471
  O     -347.767    -891.420     -38.565
  O     -349.119    -892.920     -40.037
  O     -347.696    -894.010     -38.225
  H     -348.656    -893.650     -40.517
  H     -346.491    -890.114     -37.653
  H     -346.167    -891.805     -37.358
  H     -347.523    -891.027     -36.577

 6  7  8  9  10  11  12  13  14  15  25  28  32  33  34  35 0
 6-311+G(2d,p)
 ****
 36  37  40 0
 6-311+G(2d,p)
 ****
 1  2  3  4  5  16  17  18  19  20  21  22  23  24 0
 3-21G
 ****
 26  27  29  30  31  38  39 41  42  43  44  45  46  47  48 0
 3-21G
 ****


