%nproc=1
%NoSave
%Mem=1900MB
#P OB98/GEN NMR

erre ene a

0 1
  C       64.146      -2.537    -221.890
  O       63.630      -3.268    -220.796
  H       63.905      -1.479    -221.751
  H       63.685      -2.880    -222.819
  H       65.234      -2.641    -221.955
  P       64.071      -4.798    -220.608
  C       61.934      -5.784    -221.668
  O       63.342      -5.631    -221.773
  C       61.468      -7.038    -222.413
  O       61.761      -6.870    -223.835
  C       62.166      -8.338    -221.952
  O       61.222      -9.406    -222.107
  C       63.285      -8.445    -222.973
  O       63.878      -9.715    -222.969
  C       62.528      -8.025    -224.236
  N       63.401      -7.719    -225.365
  C       63.237      -8.473    -226.524
  O       62.392      -9.357    -226.652
  N       64.100      -8.181    -227.548
  C       65.086      -7.239    -227.525
  O       65.816      -7.005    -228.483
  C       65.228      -6.493    -226.263
  C       64.393      -6.762    -225.256
  O       63.907      -5.357    -219.235
  O       65.604      -4.808    -221.071
  H       66.183      -4.757    -220.285
  H       64.570      -9.774    -223.661
  H       63.995      -8.720    -228.396
  H       66.015      -5.753    -226.204
  H       64.468      -6.235    -224.309
  H       61.811      -8.798    -224.535
  H       64.078      -7.726    -222.742
  H       62.506      -8.294    -220.914
  H       60.378      -7.121    -222.321
  H       61.460      -4.897    -222.102
  H       61.657      -5.854    -220.608
  P       60.506     -10.136    -220.867
  C       62.160     -12.097    -220.589
  O       61.609     -10.924    -220.006
  O       59.345     -10.990    -221.266
  O       60.029      -8.956    -219.894
  H       59.178      -9.205    -219.481
  H       62.877     -12.525    -219.920
  H       62.639     -11.845    -221.512
  H       61.379     -12.804    -220.774

 6  7  8  9  10  11  12  13  14  15  16  27  31  32  33  34  35 0
 6-311+G(2d,p)
 ****
 36  37 0
 6-311+G(2d,p)
 ****
 1  2  3  4  5  17  18  19  20  21  22  23  24  25 0
 3-21G
 ****
 26  28  29  30  38  39  40  41  42  43  44  45 0
 3-21G
 ****


