%nproc=1
%NoSave
%Mem=1900MB
#P OB98/GEN NMR

erre ene a

0 1
  C      162.915     339.301     481.486
  O      163.889     340.248     481.104
  H      163.404     338.500     482.049
  H      162.452     338.866     480.597
  H      162.149     339.753     482.119
  P      163.408     341.662     480.523
  C      163.922     340.923     478.107
  O      162.933     341.395     479.012
  C      163.282     340.482     476.785
  O      162.896     339.080     476.897
  C      162.021     341.274     476.406
  O      161.957     341.316     474.973
  C      160.921     340.390     476.959
  O      159.669     340.705     476.390
  C      161.480     339.002     476.636
  N      160.836     337.943     477.406
  C      159.499     337.694     477.124
  O      158.852     338.333     476.294
  N      158.903     336.705     477.859
  C      159.488     336.003     478.870
  O      158.896     335.149     479.519
  C      160.892     336.342     479.157
  C      161.492     337.279     478.422
  O      164.371     342.789     480.682
  O      162.025     341.949     481.274
  H      158.965     340.155     476.796
  H      161.891     342.912     481.377
  H      157.936     336.504     477.657
  H      161.381     335.809     479.962
  H      162.527     337.547     478.611
  H      161.349     338.769     475.568
  H      160.831     340.521     478.042
  H      162.007     342.285     476.819
  H      164.038     340.539     475.991
  H      164.432     340.075     478.574
  H      164.654     341.716     477.916
  P      162.291     342.645     474.145
  C      160.114     344.013     473.951
  O      161.334     343.829     474.663
  O      162.284     342.465     472.664
  O      163.741     343.093     474.655
  H      164.200     343.585     473.948
  H      159.566     344.823     474.385
  H      159.530     343.118     474.006
  H      160.329     344.236     472.927

 6  7  8  9  10  11  12  13  14  15  16  26  31  32  33  34  35 0
 6-311+G(2d,p)
 ****
 36  37 0
 6-311+G(2d,p)
 ****
 1  2  3  4  5  17  18  19  20  21  22  23  24  25 0
 3-21G
 ****
 27  28  29  30  38  39  40  41  42  43  44  45 0
 3-21G
 ****


