%nproc=1
%NoSave
%Mem=1900MB
#P OB98/GEN NMR

erre ene a

0 1
  C       16.492      16.970    -264.098
  O       16.588      18.343    -264.489
  P       17.190      18.634    -265.948
  C       19.522      19.254    -266.912
  O       18.788      18.696    -265.828
  C       20.539      20.273    -266.387
  O       19.888      21.445    -265.847
  C       21.406      19.739    -265.254
  O       22.394      18.848    -265.745
  C       21.952      21.038    -264.673
  O       23.043      21.530    -265.472
  C       20.747      21.984    -264.812
  N       20.247      24.669    -260.477
  C       21.114      24.771    -261.511
  N       21.181      24.017    -262.629
  C       20.221      23.075    -262.627
  C       19.267      22.851    -261.648
  C       19.303      23.697    -260.526
  N       18.427      23.580    -259.466
  N       18.453      21.792    -261.995
  C       18.920      21.369    -263.152
  N       19.985      22.123    -263.582
  O       16.770      20.156    -266.223
  O       16.667      17.718    -267.008
  H       23.400      22.322    -265.026
  H       16.066      20.191    -266.898
  H       21.849      25.568    -261.432
  H       18.529      20.531    -263.716
  H       21.045      22.994    -265.121
  H       22.319      20.930    -263.647
  H       20.780      19.227    -264.509
  H       21.177      20.584    -267.228
  H       18.846      19.737    -267.620
  H       18.570      24.177    -258.665
  H       17.777      22.809    -259.449
  H       20.019      18.444    -267.457
  P       21.949      17.340    -266.064
  C       21.549      15.316    -264.531
  O       22.197      16.570    -264.674
  O       23.164      16.830    -266.969
  O       20.586      17.192    -266.656
  H       24.029      17.081    -266.588
  H       21.828      14.890    -263.562
  H       21.868      14.633    -265.326
  H       20.464      15.447    -264.563
  H       16.079      16.908    -263.113
  H       17.467      16.528    -264.105
  H       15.859      16.447    -264.784

 3  4  5  6  7  8  9  10  11  12  22  25  29  30  31  32 0
 6-311+G(2d,p)
 ****
 33  36  37 0
 6-311+G(2d,p)
 ****
 1  2  13  14  15  16  17  18  19  20  21  23  24  26 0
 3-21G
 ****
 27  28  34  35  38  39  40  41  42  43  44  45  46  47  48 0
 3-21G
 ****


