%nproc=1
%NoSave
%Mem=1900MB
#P OB98/GEN NMR

erre ene a

0 1
  C      -13.082      60.483      29.046
  O      -14.324      60.633      28.379
  P      -15.349      61.736      28.939
  C      -15.532      64.298      28.499
  O      -14.687      63.169      28.650
  C      -15.021      65.467      29.345
  O      -15.285      65.176      30.742
  C      -13.519      65.745      29.216
  O      -13.341      67.157      29.382
  C      -12.932      65.015      30.409
  O      -11.649      65.508      30.778
  C      -14.026      65.242      31.446
  N      -11.877      63.897      35.821
  C      -11.577      64.948      34.974
  N      -10.606      65.791      35.386
  N      -12.176      65.156      33.831
  C      -13.136      64.239      33.561
  C      -13.497      63.136      34.298
  C      -12.854      62.940      35.577
  O      -13.147      62.074      36.397
  N      -14.450      62.392      33.656
  C      -14.723      63.089      32.571
  N      -13.985      64.240      32.493
  O      -15.218      61.571      30.523
  O      -16.762      61.609      28.463
  H      -11.714      66.481      30.861
  H      -15.902      60.968      30.873
  H      -11.394      63.800      36.698
  H      -15.442      62.816      31.816
  H      -13.953      66.226      31.926
  H      -12.828      63.949      30.174
  H      -10.124      65.709      36.269
  H      -13.093      65.416      28.265
  H      -10.389      66.588      34.800
  H      -15.600      66.360      29.082
  H      -16.538      64.034      28.840
  H      -15.588      64.577      27.442
  P      -12.087      67.845      28.656
  C      -11.739      68.889      26.313
  O      -12.418      67.926      27.093
  O      -10.963      66.705      28.735
  O      -11.608      69.107      29.295
  H      -10.082      67.119      28.807
  H      -11.756      68.570      25.268
  H      -10.699      69.005      26.629
  H      -12.252      69.851      26.396
  H      -12.509      59.718      28.565
  H      -13.256      60.210      30.066
  H      -12.544      61.407      29.010

 3  4  5  6  7  8  9  10  11  12  23  26  30  31 0
 6-311+G(2d,p)
 ****
 33  35  36  37  38 0
 6-311+G(2d,p)
 ****
 1  2  13  14  15  16  17  18  19  20  21  22  24  25 0
 3-21G
 ****
 27  28  29  32  34  39  40  41  42  43  44  45  46  47  48  49 0
 3-21G
 ****


