%nproc=1
%NoSave
%Mem=1900MB
#P OB98/GEN NMR

erre ene a

0 1
  C     -892.330    -485.633    -894.190
  O     -892.240    -486.007    -895.570
  P     -890.760    -486.102    -896.200
  C     -890.730    -488.513    -897.190
  O     -890.290    -487.647    -896.140
  C     -891.750    -489.507    -896.650
  O     -892.960    -488.843    -896.190
  C     -892.230    -490.505    -897.690
  O     -891.240    -491.507    -897.910
  C     -893.500    -491.032    -897.020
  O     -893.190    -491.996    -896.010
  C     -894.050    -489.749    -896.380
  N     -898.860    -490.167    -898.070
  C     -898.100    -490.981    -897.330
  N     -896.840    -490.793    -896.920
  C     -896.350    -489.622    -897.350
  C     -897.010    -488.686    -898.140
  C     -898.340    -488.988    -898.500
  N     -899.100    -488.161    -899.290
  N     -896.200    -487.598    -898.380
  C     -895.050    -487.895    -897.790
  N     -895.110    -489.111    -897.150
  O     -889.840    -485.391    -895.100
  O     -890.650    -485.438    -897.530
  H     -894.000    -492.163    -895.490
  H     -889.550    -484.523    -895.430
  H     -898.590    -491.902    -897.010
  H     -894.170    -487.263    -897.800
  H     -894.480    -489.939    -895.370
  H     -894.190    -491.508    -897.730
  H     -892.480    -490.003    -898.620
  H     -891.320    -490.041    -895.790
  H     -889.870    -489.057    -897.600
  H     -900.000    -488.491    -899.570
  H     -898.680    -487.315    -899.670
  H     -891.150    -487.909    -897.990
  P     -890.270    -491.308    -899.180
  C     -888.040    -491.524    -897.940
  O     -888.940    -490.642    -898.550
  O     -890.970    -490.078    -899.930
  O     -890.060    -492.532    -900.000
  H     -891.200    -489.351    -899.310
  H     -887.180    -490.958    -897.570
  H     -887.700    -492.281    -898.650
  H     -888.530    -492.015    -897.080
  H     -893.358    -485.606    -893.894
  H     -891.894    -484.665    -894.054
  H     -891.805    -486.348    -893.592

 3  4  5  6  7  8  9  10  11  12  22  25  29  30  31  32 0
 6-311+G(2d,p)
 ****
 33  36  37 0
 6-311+G(2d,p)
 ****
 1  2  13  14  15  16  17  18  19  20  21  23  24  26 0
 3-21G
 ****
 27  28  34  35  38  39  40  41  42  43  44  45  46  47  48 0
 3-21G
 ****


