%nproc=1
%NoSave
%Mem=1900MB
#P OB98/GEN NMR

erre ene a

0 1
  C       31.115      23.598     287.000
  O       32.210      24.358     287.471
  H       30.188      24.093     287.299
  H       31.138      22.599     287.445
  H       31.140      23.521     285.909
  P       33.670      23.948     286.950
  C       35.297      21.986     287.456
  O       33.973      22.489     287.549
  C       35.534      20.935     288.544
  O       35.567      21.606     289.836
  C       34.445      19.855     288.615
  O       35.064      18.610     288.957
  C       33.579      20.315     289.775
  O       32.826      19.275     290.384
  C       34.638      20.920     290.701
  N       34.066      21.837     291.687
  C       34.318      21.567     293.032
  O       35.054      20.673     293.444
  N       33.679      22.388     293.926
  C       32.818      23.405     293.617
  O       32.261      24.089     294.467
  C       32.587      23.631     292.186
  C       33.207      22.846     291.301
  O       34.635      24.905     287.798
  O       33.887      24.075     285.478
  H       34.783      25.747     287.325
  H       32.301      18.844     289.680
  H       33.850      22.209     294.901
  H       31.902      24.420     291.905
  H       33.040      22.976     290.236
  H       35.192      20.126     291.217
  H       32.876      21.083     289.431
  H       33.867      19.738     287.689
  H       36.522      20.485     288.391
  H       36.009      22.807     287.596
  H       35.451      21.548     286.464
  P       35.420      17.605     287.754
  C       33.926      16.085     286.224
  O       34.011      17.200     287.104
  O       35.876      16.306     288.561
  O       36.435      18.160     286.815
  H       35.378      16.172     289.388
  H       32.915      15.969     285.892
  H       34.236      15.200     286.739
  H       34.562      16.248     285.379

 6  7  8  9  10  11  12  13  14  15  16  27  31  32  33  34  35 0
 6-311+G(2d,p)
 ****
 36  37 0
 6-311+G(2d,p)
 ****
 1  2  3  4  5  17  18  19  20  21  22  23  24  25 0
 3-21G
 ****
 26  28  29  30  38  39  40  41  42  43  44  45 0
 3-21G
 ****


