%nproc=1
%NoSave
%Mem=1900MB
#P OB98/GEN NMR

erre ene a

0 1
  C      -33.591     234.194     508.551
  O      -33.203     234.175     509.910
  H      -33.363     235.180     508.137
  H      -34.666     234.015     508.467
  H      -33.038     233.437     507.985
  P      -33.277     232.754     510.661
  C      -34.726     231.980     512.711
  O      -34.590     232.829     511.584
  C      -36.165     232.005     513.225
  O      -36.462     233.334     513.713
  C      -37.211     231.651     512.166
  O      -38.250     230.894     512.787
  C      -37.741     233.004     511.722
  O      -39.051     232.900     511.163
  C      -37.637     233.813     513.021
  N      -37.561     235.252     512.774
  C      -38.541     236.045     513.374
  O      -39.429     235.525     514.061
  N      -38.529     237.401     513.157
  C      -37.652     237.914     512.351
  N      -37.701     239.255     512.159
  C      -36.630     237.109     511.651
  C      -36.636     235.801     511.915
  O      -32.069     232.876     511.704
  O      -33.197     231.575     509.752
  H      -39.655     232.579     511.870
  H      -32.003     233.750     512.126
  H      -35.932     237.578     510.975
  H      -35.915     235.137     511.448
  H      -38.504     233.618     513.666
  H      -37.081     233.432     510.955
  H      -36.799     231.087     511.326
  H      -36.236     231.331     514.092
  H      -38.430     239.772     512.640
  H      -34.046     232.295     513.508
  H      -37.103     239.755     511.513
  H      -34.449     230.965     512.406
  P      -38.614     229.443     512.216
  C      -40.242     228.408     510.501
  O      -39.674     229.604     511.020
  O      -38.967     228.411     513.238
  O      -37.276     229.020     511.430
  H      -37.130     228.068     511.579
  H      -40.927     228.650     509.715
  H      -40.762     227.892     511.281
  H      -39.465     227.782     510.116

 6  7  8  9  10  11  12  13  14  15  16  26  30  31  32  33  35 0
 6-311+G(2d,p)
 ****
 37  38 0
 6-311+G(2d,p)
 ****
 1  2  3  4  5  17  18  19  20  21  22  23  24  25 0
 3-21G
 ****
 27  28  29  34  36  39  40  41  42  43  44  45  46 0
 3-21G
 ****


