%nproc=1
%NoSave
%Mem=1900MB
#P OB98/GEN NMR

erre ene a

0 1
  C      201.333    -126.378      12.018
  O      200.768    -125.850      10.804
  P      200.081    -126.861       9.755
  C      200.820    -128.391       7.764
  O      201.208    -127.620       8.891
  C      202.039    -129.017       7.064
  O      202.832    -127.975       6.396
  C      202.996    -129.771       8.000
  O      203.560    -130.857       7.256
  C      204.067    -128.725       8.284
  O      205.281    -129.285       8.767
  C      204.178    -128.068       6.914
  N      204.818    -126.744       6.924
  C      206.215    -126.692       6.883
  O      206.942    -127.688       6.884
  N      206.748    -125.430       6.856
  C      206.064    -124.252       6.909
  O      206.604    -123.160       6.914
  C      204.596    -124.375       6.989
  C      204.050    -125.594       6.991
  O      199.453    -125.853       8.677
  O      199.013    -127.748      10.319
  H      205.856    -128.548       9.032
  H      198.540    -126.126       8.467
  H      207.757    -125.367       6.798
  H      204.011    -123.458       7.034
  H      202.969    -125.707       7.037
  H      204.732    -128.729       6.232
  H      203.691    -128.029       9.051
  H      202.501    -130.143       8.912
  H      201.673    -129.687       6.275
  H      200.298    -127.743       7.048
  H      200.122    -129.170       8.084
  P      203.427    -132.349       7.864
  C      204.462    -133.572       9.937
  O      204.464    -132.452       9.087
  O      204.145    -133.193       6.703
  O      202.032    -132.775       8.143
  H      204.971    -132.791       6.395
  H      204.323    -134.506       9.378
  H      203.664    -133.461      10.690
  H      205.431    -133.624      10.458
  H      201.745    -125.578      12.597
  H      202.105    -127.078      11.777
  H      200.569    -126.870      12.583

 3  4  5  6  7  8  9  10  11  12  13  23  28  29  30  31  32 0
 6-311+G(2d,p)
 ****
 33  34 0
 6-311+G(2d,p)
 ****
 1  2  14  15  16  17  18  19  20  21  22  24  25  26 0
 3-21G
 ****
 27  35  36  37  38  39  40  41  42  43  44  45 0
 3-21G
 ****


