%nproc=1
%NoSave
%Mem=1900MB
#P OB98/GEN NMR

erre ene a

0 1
  C       78.739     141.322     563.303
  O       78.265     141.717     562.025
  P       76.687     141.779     561.705
  C       76.584     139.543     560.405
  O       76.234     140.244     561.594
  C       75.576     138.424     560.144
  O       75.650     137.447     561.192
  C       74.123     138.887     560.105
  O       73.825     139.543     558.878
  C       73.399     137.560     560.340
  O       73.337     136.807     559.126
  C       74.335     136.869     561.348
  N       73.867     136.976     562.730
  C       72.788     136.165     563.095
  O       72.264     135.399     562.273
  N       72.323     136.208     564.383
  C       72.885     137.022     565.240
  N       72.434     136.979     566.522
  C       73.989     137.934     564.888
  C       74.432     137.852     563.630
  O       76.319     142.628     560.539
  O       76.018     142.241     563.079
  H       72.845     137.358     558.478
  H       75.961     143.225     563.183
  H       74.405     138.602     565.633
  H       75.246     138.478     563.298
  H       74.441     135.804     561.095
  H       72.375     137.688     560.713
  H       73.922     139.575     560.942
  H       75.848     137.941     559.199
  H       71.799     136.221     566.762
  H       77.579     139.101     560.546
  H       72.986     137.340     567.290
  H       76.624     140.249     559.568
  P       73.212     141.023     558.970
  C       70.877     139.898     559.155
  O       71.777     140.865     559.683
  O       72.857     141.362     557.444
  O       74.118     142.034     559.583
  H       73.541     141.945     557.048
  H       70.068     139.746     559.887
  H       71.385     138.942     558.991
  H       70.440     140.264     558.217
  H       79.809     141.347     563.310
  H       78.404     140.328     563.516
  H       78.362     141.993     564.046

 3  4  5  6  7  8  9  10  11  12  13  23  27  28  29  30  32 0
 6-311+G(2d,p)
 ****
 34  35 0
 6-311+G(2d,p)
 ****
 1  2  14  15  16  17  18  19  20  21  22  24  25  26 0
 3-21G
 ****
 31  33  36  37  38  39  40  41  42  43  44  45  46 0
 3-21G
 ****


