%nproc=1
%NoSave
%Mem=1900MB
#P OB98/GEN NMR

erre ene a

0 1
  C       50.492     678.007      69.065
  O       51.474     678.416      69.995
  H       50.326     676.927      69.136
  H       49.556     678.524      69.292
  H       50.804     678.268      68.050
  P       52.898     677.682      69.893
  C       54.025     679.691      68.708
  O       53.651     678.325      68.629
  C       55.494     679.815      69.100
  O       56.324     679.120      68.142
  C       56.033     681.238      69.133
  O       55.651     681.920      70.321
  C       57.531     680.976      69.084
  O       58.003     680.629      70.404
  C       57.628     679.758      68.159
  N       60.184     678.208      63.985
  C       60.006     677.637      65.195
  N       59.324     678.107      66.261
  C       58.775     679.302      65.978
  C       58.871     680.004      64.793
  C       59.620     679.413      63.764
  N       59.811     680.012      62.534
  N       58.166     681.187      64.869
  C       57.651     681.202      66.083
  N       57.997     680.084      66.796
  O       52.525     676.208      69.390
  O       53.689     677.645      71.160
  H       58.976     680.608      70.351
  H       53.132     675.569      69.807
  H       60.471     676.657      65.326
  H       57.027     681.986      66.480
  H       58.342     679.017      68.537
  H       58.108     681.841      68.751
  H       55.733     681.795      68.237
  H       55.627     679.323      70.074
  H       53.412     680.195      69.462
  H       60.185     679.464      61.782
  H       59.381     680.919      62.378
  H       53.852     680.161      67.734
  P       55.720     683.526      70.309
  C       53.146     683.468      70.668
  O       54.239     684.013      69.934
  O       56.559     683.842      68.983
  O       56.330     684.149      71.515
  H       56.997     684.713      69.068
  H       52.230     683.886      70.306
  H       53.260     683.704      71.705
  H       53.127     682.405      70.544

 6  7  8  9  10  11  12  13  14  15  25  28  32  33  34  35 0
 6-311+G(2d,p)
 ****
 36  39  40 0
 6-311+G(2d,p)
 ****
 1  2  3  4  5  16  17  18  19  20  21  22  23  24 0
 3-21G
 ****
 26  27  29  30  31  37  38  41  42  43  44  45  46  47  48 0
 3-21G
 ****


