%nproc=1
%NoSave
%Mem=1900MB
#P OB98/GEN NMR

erre ene a

0 1
  C     1026.597     -52.066    -208.873
  O     1026.411     -50.793    -209.464
  H     1027.621     -52.134    -208.500
  H     1026.439     -52.861    -209.607
  H     1025.912     -52.198    -208.031
  P     1025.013     -50.490    -210.191
  C     1025.861     -51.637    -212.351
  O     1024.853     -51.590    -211.352
  C     1025.893     -53.013    -213.024
  O     1024.528     -53.393    -213.364
  C     1026.714     -53.055    -214.321
  O     1027.245     -54.390    -214.452
  C     1025.644     -52.792    -215.370
  O     1026.105     -53.103    -216.661
  C     1024.500     -53.625    -214.796
  N     1023.211     -53.280    -215.378
  C     1023.044     -53.589    -216.731
  O     1023.959     -54.119    -217.374
  N     1021.853     -53.272    -217.343
  C     1020.942     -52.633    -216.669
  N     1019.800     -52.333    -217.336
  C     1021.109     -52.233    -215.255
  C     1022.254     -52.588    -214.678
  O     1024.806     -49.079    -210.628
  O     1023.912     -50.938    -209.114
  H     1025.382     -53.018    -217.317
  H     1023.516     -50.147    -208.706
  H     1020.325     -51.684    -214.752
  H     1022.465     -52.343    -213.647
  H     1024.674     -54.700    -214.949
  H     1025.374     -51.738    -215.375
  H     1027.532     -52.322    -214.324
  H     1026.257     -53.751    -212.298
  H     1019.735     -52.609    -218.307
  H     1026.818     -51.446    -211.865
  H     1019.036     -51.816    -216.930
  H     1025.685     -50.862    -213.103
  P     1028.724     -54.779    -213.989
  C     1029.792     -53.725    -216.093
  O     1029.780     -53.773    -214.669
  O     1029.051     -56.222    -214.178
  O     1028.801     -54.385    -212.437
  H     1029.406     -55.000    -211.981
  H     1030.532     -53.024    -216.420
  H     1028.830     -53.420    -216.448
  H     1030.024     -54.695    -216.481

 6  7  8  9  10  11  12  13  14  15  16  26  30  31  32  33  35 0
 6-311+G(2d,p)
 ****
 37  38 0
 6-311+G(2d,p)
 ****
 1  2  3  4  5  17  18  19  20  21  22  23  24  25 0
 3-21G
 ****
 27  28  29  34  36  39  40  41  42  43  44  45  46 0
 3-21G
 ****


