%nproc=1
%NoSave
%Mem=1900MB
#P OB98/GEN NMR

erre ene a

0 1
  C      429.595     628.706     334.313
  O      429.177     629.320     335.532
  P      428.858     630.894     335.533
  C      427.200     632.483     334.357
  O      427.525     631.128     334.657
  C      425.701     632.633     334.085
  O      425.279     631.825     332.963
  C      424.836     632.179     335.259
  O      424.867     633.136     336.299
  C      423.483     632.006     334.568
  O      422.805     633.263     334.444
  C      423.894     631.483     333.177
  N      423.654     630.059     333.011
  C      422.574     629.693     332.193
  O      421.865     630.567     331.683
  N      422.336     628.355     331.982
  C      423.090     627.461     332.548
  N      422.801     626.153     332.302
  C      424.230     627.799     333.432
  C      424.443     629.093     333.625
  O      430.005     631.786     335.207
  O      428.333     631.148     337.033
  H      422.098     633.142     333.788
  H      428.552     632.069     337.285
  H      424.834     627.012     333.879
  H      425.255     629.432     334.265
  H      423.317     631.998     332.393
  H      422.822     631.349     335.137
  H      425.185     631.212     335.628
  H      425.502     633.687     333.850
  H      422.010     625.955     331.705
  H      427.769     632.809     333.471
  H      423.362     625.396     332.649
  H      427.517     633.120     335.189
  P      425.312     632.634     337.755
  C      427.395     633.006     339.262
  O      426.858     633.007     337.939
  O      425.331     631.033     337.602
  O      424.412     633.062     338.875
  H      425.072     630.627     338.439
  H      428.493     632.961     339.182
  H      427.047     632.152     339.832
  H      427.130     633.938     339.755
  H      429.766     627.663     334.479
  H      430.499     629.166     333.974
  H      428.833     628.829     333.572

 3  4  5  6  7  8  9  10  11  12  13  23  27  28  29  30  32 0
 6-311+G(2d,p)
 ****
 34  35 0
 6-311+G(2d,p)
 ****
 1  2  14  15  16  17  18  19  20  21  22  24  25  26 0
 3-21G
 ****
 31  33  36  37  38  39  40  41  42  43  44  45  46 0
 3-21G
 ****


