%nproc=1
%NoSave
%Mem=1900MB
#P OB98/GEN NMR

erre ene a

0 1
  C     -434.608     167.119     -13.461
  O     -435.092     166.130     -14.351
  H     -433.515     167.148     -13.524
  H     -434.896     166.867     -12.434
  H     -435.004     168.103     -13.729
  P     -436.674     166.091     -14.580
  C     -438.741     165.881     -12.973
  O     -437.352     165.659     -13.183
  C     -438.981     166.408     -11.560
  O     -438.480     167.755     -11.425
  C     -440.448     166.533     -11.176
  O     -441.054     165.280     -10.943
  C     -440.343     167.396      -9.926
  O     -440.064     166.613      -8.761
  C     -439.141     168.318     -10.266
  N     -439.564     169.692     -10.486
  C     -439.742     170.455      -9.322
  O     -439.523     169.957      -8.215
  N     -440.198     171.743      -9.446
  C     -440.481     172.220     -10.619
  N     -440.960     173.495     -10.670
  C     -440.307     171.450     -11.870
  C     -439.851     170.200     -11.733
  O     -436.862     164.791     -15.493
  O     -437.257     167.338     -15.166
  H     -440.100     167.232      -7.998
  H     -436.399     164.004     -15.154
  H     -440.544     171.896     -12.827
  H     -439.697     169.564     -12.595
  H     -438.409     168.311      -9.451
  H     -441.273     167.941      -9.733
  H     -440.995     167.102     -11.943
  H     -438.436     165.761     -10.857
  H     -441.114     173.967      -9.786
  H     -439.305     164.953     -13.128
  H     -441.286     173.939     -11.516
  H     -439.081     166.608     -13.717
  P     -442.594     165.165     -10.512
  C     -443.916     165.751      -8.373
  O     -442.645     165.401      -8.918
  O     -443.299     163.933     -10.972
  O     -443.225     166.527     -11.071
  H     -442.828     167.344     -10.710
  H     -443.827     165.881      -7.315
  H     -444.619     164.971      -8.578
  H     -444.256     166.663      -8.817

 6  7  8  9  10  11  12  13  14  15  16  26  30  31  32  33  35 0
 6-311+G(2d,p)
 ****
 37  38 0
 6-311+G(2d,p)
 ****
 1  2  3  4  5  17  18  19  20  21  22  23  24  25 0
 3-21G
 ****
 27  28  29  34  36  39  40  41  42  43  44  45  46 0
 3-21G
 ****


