%nproc=1
%NoSave
%Mem=1900MB
#P OB98/GEN NMR

erre ene a

0 1
  C       64.713    -117.180      73.608
  O       65.754    -117.531      74.504
  P       66.127    -119.081      74.661
  C       68.326    -118.823      73.305
  O       67.078    -119.488      73.433
  C       69.390    -119.768      72.744
  O       69.496    -120.941      73.593
  C       69.087    -120.259      71.325
  O       70.319    -120.430      70.609
  C       68.498    -121.636      71.548
  O       68.640    -122.459      70.391
  C       69.305    -122.101      72.759
  N       69.570    -126.958      74.129
  C       70.552    -126.138      73.610
  N       71.741    -126.720      73.342
  N       70.387    -124.863      73.381
  C       69.144    -124.420      73.693
  C       68.093    -125.131      74.227
  C       68.287    -126.544      74.464
  O       67.450    -127.330      74.895
  N       67.002    -124.330      74.439
  C       67.372    -123.145      73.997
  N       68.650    -123.158      73.500
  O       64.744    -119.816      74.325
  O       66.623    -119.469      76.012
  H       68.258    -123.330      70.613
  H       64.339    -120.150      75.147
  H       69.743    -127.938      74.277
  H       66.751    -122.259      73.987
  H       70.299    -122.462      72.466
  H       67.431    -121.556      71.781
  H       71.911    -127.711      73.432
  H       68.421    -119.606      70.751
  H       72.463    -126.152      72.918
  H       70.361    -119.260      72.778
  H       68.644    -118.471      74.287
  H       68.212    -117.953      72.650
  P       70.296    -120.006      69.060
  C       71.654    -117.846      69.570
  O       70.475    -118.416      69.041
  O       68.768    -120.223      68.641
  O       71.239    -120.779      68.200
  H       68.701    -120.388      67.683
  H       72.191    -117.332      68.768
  H       72.314    -118.596      70.015
  H       71.383    -117.117      70.339
  H       64.582    -116.118      73.612
  H       63.804    -117.653      73.915
  H       64.968    -117.504      72.621

 3  4  5  6  7  8  9  10  11  12  23  26  30  31 0
 6-311+G(2d,p)
 ****
 33  35  36  37  38 0
 6-311+G(2d,p)
 ****
 1  2  13  14  15  16  17  18  19  20  21  22  24  25 0
 3-21G
 ****
 27  28  29  32  34  39  40  41  42  43  44  45  46  47  48  49 0
 3-21G
 ****


