%nproc=1
%NoSave
%Mem=1900MB
#P OB98/GEN NMR

erre ene a

0 1
  C     -439.454     -75.252    -310.929
  O     -440.069     -74.823    -312.149
  P     -441.287     -73.771    -312.159
  C     -443.322     -75.242    -312.707
  O     -442.429     -74.241    -313.188
  C     -443.770     -76.231    -313.798
  O     -444.435     -75.531    -314.889
  C     -442.643     -77.060    -314.430
  O     -443.228     -78.312    -314.791
  C     -442.309     -76.245    -315.672
  O     -441.601     -76.985    -316.660
  C     -443.706     -75.805    -316.099
  N     -443.333     -74.159    -320.937
  C     -443.522     -75.392    -320.420
  N     -443.643     -75.750    -319.125
  C     -443.604     -74.667    -318.327
  C     -443.431     -73.348    -318.709
  C     -443.282     -73.106    -320.085
  N     -443.043     -71.856    -320.617
  N     -443.415     -72.512    -317.606
  C     -443.563     -73.319    -316.574
  N     -443.687     -74.633    -316.958
  O     -440.865     -72.346    -312.326
  O     -441.984     -73.965    -310.728
  H     -441.398     -76.386    -317.402
  H     -442.161     -73.090    -310.335
  H     -443.559     -76.207    -321.145
  H     -443.568     -73.022    -315.534
  H     -444.229     -76.606    -316.630
  H     -441.677     -75.388    -315.386
  H     -441.786     -77.201    -313.767
  H     -444.520     -76.895    -313.349
  H     -444.199     -74.749    -312.275
  H     -442.853     -71.797    -321.606
  H     -442.872     -71.086    -319.994
  H     -442.822     -75.797    -311.898
  P     -443.487     -79.466    -313.708
  C     -443.550     -81.636    -315.077
  O     -444.322     -80.614    -314.457
  O     -444.076     -78.998    -312.421
  O     -442.051     -80.137    -313.485
  H     -442.050     -80.631    -312.647
  H     -443.128     -81.257    -316.009
  H     -444.203     -82.483    -315.294
  H     -442.742     -81.965    -314.414
  H     -438.671     -75.947    -311.149
  H     -440.186     -75.724    -310.307
  H     -439.046     -74.405    -310.418

 3  4  5  6  7  8  9  10  11  12  22  25  29  30  31  32 0
 6-311+G(2d,p)
 ****
 33  36  37 0
 6-311+G(2d,p)
 ****
 1  2  13  14  15  16  17  18  19  20  21  23  24  26 0
 3-21G
 ****
 27  28  34  35  38  39  40  41  42  43  44  45  46  47  48 0
 3-21G
 ****


