%nproc=1
%NoSave
%Mem=1900MB
#P OB98/GEN NMR

erre ene a

0 1
  C     -102.437     232.434    -358.385
  O     -101.648     233.529    -358.841
  P     -102.269     234.466    -359.989
  C     -101.539     233.299    -362.193
  O     -102.568     233.487    -361.228
  C     -102.079     233.537    -363.604
  O     -103.257     232.742    -363.826
  C     -102.495     234.974    -363.888
  O     -101.382     235.797    -364.231
  C     -103.403     234.777    -365.091
  O     -102.608     234.607    -366.282
  C     -104.123     233.472    -364.738
  N     -107.953     231.237    -362.190
  C     -106.828     230.735    -362.743
  N     -105.861     231.391    -363.414
  C     -106.165     232.699    -363.528
  C     -107.294     233.343    -363.048
  C     -108.217     232.557    -362.341
  N     -109.357     233.075    -361.760
  N     -107.257     234.684    -363.362
  C     -106.118     234.854    -364.008
  N     -105.419     233.684    -364.120
  O     -101.001     235.316    -360.486
  O     -103.395     235.338    -359.548
  H     -102.241     235.488    -366.507
  H     -101.302     236.147    -360.897
  H     -106.683     229.668    -362.617
  H     -105.766     235.795    -364.397
  H     -104.276     232.831    -365.617
  H     -104.059     235.634    -365.269
  H     -103.073     235.395    -363.050
  H     -101.310     233.207    -364.318
  H     -101.166     232.278    -362.124
  H     -109.865     232.485    -361.119
  H     -109.442     234.079    -361.702
  H     -100.716     233.991    -361.980
  P     -101.346     237.263    -363.574
  C     -102.875     238.256    -365.433
  O     -102.695     237.981    -364.053
  O     -100.191     237.998    -364.407
  O     -101.075     237.267    -362.106
  H      -99.797     238.718    -363.885
  H     -103.929     238.446    -365.618
  H     -102.553     237.406    -366.052
  H     -102.300     239.146    -365.705
  H     -101.903     231.901    -357.626
  H     -102.643     231.777    -359.204
  H     -103.358     232.801    -357.982

 3  4  5  6  7  8  9  10  11  12  22  25  29  30  31  32 0
 6-311+G(2d,p)
 ****
 33  36  37 0
 6-311+G(2d,p)
 ****
 1  2  13  14  15  16  17  18  19  20  21  23  24  26 0
 3-21G
 ****
 27  28  34  35  38  39  40  41  42  43  44  45  46  47  48 0
 3-21G
 ****


