%nproc=1
%NoSave
%Mem=1900MB
#P OB98/GEN NMR

erre ene a

0 1
  C      627.459      54.203     414.984
  O      627.382      55.484     414.391
  P      628.704      56.378     414.222
  C      628.597      58.411     415.788
  O      629.030      57.065     415.637
  C      629.787      59.324     416.091
  O      630.628      58.744     417.106
  C      630.709      59.567     414.897
  O      630.132      60.430     413.940
  C      631.949      60.112     415.604
  O      631.795      61.496     415.904
  C      631.962      59.270     416.904
  N      632.957      58.211     416.861
  C      633.963      58.279     417.833
  O      634.028      59.235     418.599
  N      634.876      57.247     417.897
  C      634.859      56.308     416.995
  N      635.758      55.294     417.147
  C      633.915      56.299     415.869
  C      632.985      57.255     415.875
  O      628.695      57.313     413.060
  O      629.881      55.299     414.079
  H      630.425      55.522     413.303
  H      631.091      61.568     416.573
  H      633.985      55.528     415.107
  H      632.227      57.304     415.096
  H      632.163      59.918     417.760
  H      632.846      60.005     414.980
  H      630.951      58.605     414.430
  H      629.396      60.280     416.466
  H      636.370      55.330     417.946
  H      627.870      58.463     416.607
  H      635.620      54.384     416.712
  H      628.096      58.739     414.867
  P      630.489      60.154     412.404
  C      632.458      61.807     412.724
  O      632.017      60.563     412.191
  O      629.675      61.293     411.626
  O      630.116      58.783     411.912
  H      629.344      60.942     410.780
  H      633.552      61.778     412.811
  H      632.037      61.993     413.710
  H      632.173      62.607     412.038
  H      626.484      53.763     415.010
  H      627.836      54.294     415.981
  H      628.115      53.583     414.410

 3  4  5  6  7  8  9  10  11  12  13  24  27  28  29  30  32 0
 6-311+G(2d,p)
 ****
 34  35 0
 6-311+G(2d,p)
 ****
 1  2  14  15  16  17  18  19  20  21  22  23  25  26 0
 3-21G
 ****
 31  33  36  37  38  39  40  41  42  43  44  45  46 0
 3-21G
 ****


