%nproc=1
%NoSave
%Mem=1900MB
#P OB98/GEN NMR

erre ene a

0 1
  C        1.304     -52.376      20.081
  O       -0.107     -52.585      20.190
  P       -0.632     -54.095      20.045
  C       -0.483     -54.222      17.463
  O       -0.007     -54.720      18.704
  C        0.427     -54.647      16.304
  O        0.000     -54.027      15.057
  C        1.897     -54.271      16.507
  O        2.696     -55.290      15.893
  C        2.037     -52.993      15.703
  O        3.400     -52.717      15.389
  C        1.134     -53.317      14.515
  N        0.242     -51.321       9.904
  C        0.664     -52.542      10.294
  N        0.900     -52.990      11.547
  C        0.610     -52.036      12.448
  C        0.180     -50.743      12.201
  C       -0.003     -50.388      10.855
  N       -0.407     -49.136      10.454
  N        0.038     -50.045      13.385
  C        0.380     -50.903      14.324
  N        0.703     -52.126      13.811
  O       -2.181     -53.909      19.688
  O       -0.450     -54.918      21.277
  H        3.443     -51.832      14.970
  H       -2.730     -54.162      20.453
  H        0.842     -53.256       9.492
  H        0.417     -50.689      15.382
  H        1.626     -53.966      13.781
  H        1.640     -52.147      16.277
  H        2.197     -54.144      17.552
  H        0.339     -55.732      16.177
  H       -0.536     -53.130      17.492
  H       -0.487     -48.955       9.466
  H       -0.548     -48.419      11.150
  H       -1.510     -54.568      17.309
  P        3.711     -56.078      16.851
  C        5.869     -55.261      15.669
  O        5.077     -55.243      16.840
  O        4.065     -57.400      16.021
  O        3.154     -56.395      18.200
  H        4.328     -58.116      16.627
  H        6.266     -54.257      15.497
  H        5.299     -55.570      14.787
  H        6.703     -55.952      15.813
  H        1.520     -51.334      20.195
  H        1.640     -52.707      19.121
  H        1.807     -52.930      20.846

 3  4  5  6  7  8  9  10  11  12  22  25  29  30  31  32 0
 6-311+G(2d,p)
 ****
 33  36  37 0
 6-311+G(2d,p)
 ****
 1  2  13  14  15  16  17  18  19  20  21  23  24  26 0
 3-21G
 ****
 27  28  34  35  38  39  40  41  42  43  44  45  46  47  48 0
 3-21G
 ****


