%nproc=1
%NoSave
%Mem=1900MB
#P OB98/GEN NMR

erre ene a

0 1
  C      -85.503    -172.521     113.329
  O      -85.059    -172.845     112.027
  P      -84.345    -174.243     111.720
  C      -81.861    -174.859     111.852
  O      -82.968    -174.290     112.538
  C      -80.848    -175.456     112.828
  O      -81.534    -176.334     113.758
  C      -79.731    -176.265     112.155
  O      -78.524    -176.006     112.881
  C      -80.178    -177.700     112.358
  O      -79.100    -178.621     112.272
  C      -80.845    -177.600     113.734
  N      -81.754    -178.706     113.993
  C      -81.180    -179.914     114.396
  O      -79.956    -180.048     114.393
  N      -82.011    -180.937     114.777
  C      -83.290    -180.827     114.589
  N      -84.082    -181.836     115.042
  C      -83.905    -179.657     113.930
  C      -83.096    -178.626     113.700
  O      -84.217    -174.584     110.272
  O      -85.252    -175.323     112.481
  H      -85.512    -176.023     111.850
  H      -78.433    -178.392     112.953
  H      -84.955    -179.664     113.679
  H      -83.457    -177.711     113.247
  H      -80.088    -177.571     114.528
  H      -80.917    -177.967     111.593
  H      -79.585    -175.996     111.105
  H      -80.416    -174.635     113.415
  H      -83.629    -182.602     115.524
  H      -81.376    -174.069     111.275
  H      -85.075    -181.703     115.227
  H      -82.212    -175.621     111.146
  P      -77.131    -176.491     112.242
  C      -75.781    -178.707     112.231
  O      -77.030    -178.078     112.427
  O      -76.075    -175.960     113.331
  O      -76.789    -175.942     110.896
  H      -75.211    -175.831     112.897
  H      -75.915    -179.787     112.330
  H      -75.064    -178.373     112.985
  H      -75.396    -178.493     111.231
  H      -85.950    -171.549     113.322
  H      -84.671    -172.526     114.001
  H      -86.225    -173.243     113.650

 3  4  5  6  7  8  9  10  11  12  13  24  27  28  29  30  32 0
 6-311+G(2d,p)
 ****
 34  35 0
 6-311+G(2d,p)
 ****
 1  2  14  15  16  17  18  19  20  21  22  23  25  26 0
 3-21G
 ****
 31  33  36  37  38  39  40  41  42  43  44  45  46 0
 3-21G
 ****


