%nproc=1
%NoSave
%Mem=1900MB
#P OB98/GEN NMR

erre ene a

0 1
  C     -523.496      73.318     175.434
  O     -523.922      74.629     175.743
  H     -523.901      73.036     174.455
  H     -523.865      72.616     176.184
  H     -522.401      73.273     175.384
  P     -523.434      75.238     177.150
  C     -523.651      77.719     176.403
  O     -524.124      76.690     177.273
  C     -524.641      78.886     176.387
  O     -525.821      78.492     175.621
  C     -525.123      79.324     177.776
  O     -525.258      80.744     177.798
  C     -526.507      78.693     177.878
  O     -527.336      79.372     178.820
  C     -526.968      78.809     176.427
  N     -531.871      78.023     177.264
  C     -531.048      79.062     177.666
  N     -531.612      80.052     178.402
  N     -529.776      79.130     177.362
  C     -529.351      78.098     176.599
  C     -530.066      77.010     176.151
  C     -531.465      76.940     176.501
  O     -532.239      76.035     176.204
  N     -529.260      76.149     175.430
  C     -528.068      76.729     175.444
  N     -528.073      77.911     176.136
  O     -521.891      75.582     176.891
  O     -523.624      74.352     178.335
  H     -528.262      79.121     178.645
  H     -521.374      75.506     177.720
  H     -532.844      78.025     177.529
  H     -527.176      76.329     174.976
  H     -527.305      79.824     176.174
  H     -526.413      77.643     178.179
  H     -532.597      80.084     178.645
  H     -524.458      79.010     178.589
  H     -531.029      80.826     178.694
  H     -524.177      79.720     175.848
  H     -523.542      77.308     175.393
  H     -522.677      78.067     176.764
  P     -524.120      81.592     178.543
  C     -524.531      83.806     177.240
  O     -524.517      83.154     178.493
  O     -522.884      81.502     177.530
  O     -523.756      81.066     179.891
  H     -522.195      80.919     177.892
  H     -524.812      84.830     177.374
  H     -525.236      83.324     176.595
  H     -523.556      83.758     176.802

 6  7  8  9  10  11  12  13  14  15  26  29  33  34 0
 6-311+G(2d,p)
 ****
 36  38  39  40  41 0
 6-311+G(2d,p)
 ****
 1  2  3  4  5  16  17  18  19  20  21  22  23  24  25 0
 3-21G
 ****
 27  28  30  31  32  35  37  42  43  44  45  46  47 0
 3-21G
 ****
 48  49 0
 3-21G
 ****


