%nproc=1
%NoSave
%Mem=1900MB
#P OB98/GEN NMR

erre ene a

0 1
  C       11.020    -296.236     -91.934
  O       11.248    -295.644     -90.658
  P       12.227    -296.423     -89.645
  C       12.196    -298.771     -88.544
  O       11.490    -297.814     -89.322
  C       11.283    -299.934     -88.171
  O       10.704    -300.494     -89.363
  C       11.993    -301.092     -87.480
  O       12.184    -300.847     -86.095
  C       10.990    -302.217     -87.706
  O        9.945    -302.140     -86.716
  C       10.433    -301.895     -89.102
  N       10.436    -306.376     -91.463
  C        9.653    -305.924     -90.416
  N        8.722    -306.787     -89.948
  N        9.777    -304.743     -89.871
  C       10.721    -303.979     -90.464
  C       11.556    -304.313     -91.515
  C       11.445    -305.644     -92.073
  O       12.157    -306.115     -92.956
  N       12.373    -303.263     -91.852
  C       12.010    -302.286     -91.041
  N       11.029    -302.681     -90.166
  O       12.069    -295.596     -88.285
  O       13.648    -296.513     -90.082
  H       10.369    -302.284     -85.841
  H       12.864    -295.707     -87.736
  H       10.286    -307.289     -91.855
  H       12.428    -301.287     -91.057
  H        9.347    -302.027     -89.135
  H       11.441    -303.216     -87.614
  H        8.492    -307.656     -90.407
  H       12.936    -301.337     -87.982
  H        8.113    -306.460     -89.208
  H       10.475    -299.548     -87.540
  H       12.554    -298.292     -87.625
  H       13.064    -299.122     -89.110
  P       13.187    -301.839     -85.327
  C       13.070    -304.350     -84.674
  O       12.485    -303.281     -85.386
  O       13.039    -301.398     -83.795
  O       14.603    -301.772     -85.795
  H       13.849    -301.620     -83.297
  H       13.506    -304.015     -83.728
  H       13.850    -304.814     -85.285
  H       12.299    -305.095     -84.463
  H       10.356    -295.617     -92.501
  H       10.583    -297.204     -91.805
  H       11.950    -296.331     -92.455

 3  4  5  6  7  8  9  10  11  12  23  26  30  31  33  0
 6-311+G(2d,p)
 ****
 35  36  37  38 0
 6-311+G(2d,p)
 ****
 1  2  13  14  15  16  17  18  19  20  21  22  24  25  27  28  29 0
 3-21G
 ****
 32  34  39  40  41  42  43  44  45  46  47  48  49 0
 3-21G
 ****


