%nproc=1
%NoSave
%Mem=1900MB
#P OB98/GEN NMR

erre ene a

0 1
  C      -60.721      -0.199     263.571
  O      -60.870       1.056     262.927
  P      -62.068       1.305     261.891
  C      -60.544       1.506     259.829
  O      -61.565       0.751     260.469
  C      -60.778       1.562     258.320
  O      -60.571       0.240     257.768
  C      -62.191       2.000     257.942
  O      -62.123       2.790     256.749
  C      -62.913       0.702     257.615
  O      -63.996       0.928     256.701
  C      -61.763      -0.147     257.059
  N      -61.073      -4.854     255.113
  C      -60.690      -3.633     254.673
  N      -60.929      -2.423     255.224
  C      -61.597      -2.561     256.385
  C      -62.049      -3.737     256.963
  C      -61.764      -4.930     256.274
  N      -62.143      -6.174     256.735
  N      -62.725      -3.475     258.144
  C      -62.660      -2.170     258.279
  N      -61.981      -1.571     257.248
  O      -62.598       2.698     261.861
  O      -63.194       0.251     262.314
  H      -64.520       0.103     256.665
  H      -64.084       0.642     262.221
  H      -60.120      -3.628     253.750
  H      -63.096      -1.606     259.092
  H      -61.601       0.038     255.991
  H      -63.326       0.271     258.531
  H      -62.689       2.564     258.738
  H      -60.030       2.227     257.874
  H      -59.582       1.022     260.026
  H      -61.791      -6.979     256.238
  H      -62.503      -6.243     257.677
  H      -60.515       2.515     260.255
  P      -63.426       3.678     256.421
  C      -63.553       2.564     254.070
  O      -64.204       2.857     255.287
  O      -63.075       5.098     256.118
  O      -64.290       3.470     257.758
  H      -64.057       2.629     258.209
  H      -64.255       2.035     253.415
  H      -62.693       1.914     254.250
  H      -63.230       3.485     253.575
  H      -59.870      -0.168     264.219
  H      -60.581      -0.963     262.835
  H      -61.599      -0.412     264.144

 3  4  5  6  7  8  9  10  11  12  22  25  29  30  31  32 0
 6-311+G(2d,p)
 ****
 33  36  37 0
 6-311+G(2d,p)
 ****
 1  2  13  14  15  16  17  18  19  20  21  23  24  26 0
 3-21G
 ****
 27  28  34  35  38  39  40  41  42  43  44  45  46  47  48 0
 3-21G
 ****


