%nproc=1
%NoSave
%Mem=1900MB
#P OB98/GEN NMR

erre ene a

0 1
  C      -11.263      70.238     169.945
  O      -10.930      69.343     168.901
  P      -11.358      67.806     169.003
  C       -9.196      67.071     170.182
  O      -10.613      67.173     170.273
  C       -8.673      66.040     171.179
  O       -8.831      66.522     172.530
  C       -9.407      64.705     171.133
  O       -8.994      63.940     170.017
  C       -9.028      64.115     172.486
  O       -7.727      63.509     172.429
  C       -9.001      65.364     173.379
  N      -11.371      63.844     177.631
  C      -10.252      63.404     177.018
  N       -9.704      63.837     175.862
  C      -10.452      64.813     175.324
  C      -11.636      65.341     175.814
  C      -12.087      64.831     177.044
  N      -13.193      65.314     177.709
  N      -12.124      66.309     174.956
  C      -11.257      66.355     173.967
  N      -10.199      65.517     174.178
  O      -11.229      67.021     167.739
  O      -12.886      67.867     169.476
  H       -7.774      62.780     171.782
  H      -13.451      67.443     168.802
  H       -9.720      62.605     177.526
  H      -11.341      66.985     173.092
  H       -8.148      65.352     174.069
  H       -9.730      63.345     172.821
  H      -10.489      64.875     171.106
  H       -7.601      65.898     170.994
  H       -8.766      68.052     170.403
  H      -13.343      64.978     178.647
  H      -13.550      66.229     177.448
  H       -8.919      66.785     169.162
  P      -10.026      62.941     169.311
  C       -9.275      60.640     170.159
  O      -10.212      61.690     170.296
  O       -9.723      62.596     167.891
  O      -11.431      63.701     169.437
  H      -11.988      63.481     168.668
  H       -9.531      60.032     169.287
  H       -9.315      60.015     171.054
  H       -8.260      61.034     170.045
  H      -10.899      71.216     169.706
  H      -10.815      69.904     170.858
  H      -12.326      70.272     170.060

 3  4  5  6  7  8  9  10  11  12  22  25  29  30  31  32 0
 6-311+G(2d,p)
 ****
 33  36  37 0
 6-311+G(2d,p)
 ****
 1  2  13  14  15  16  17  18  19  20  21  23  24  26 0
 3-21G
 ****
 27  28  34  35  38  39  40  41  42  43  44  45  46  47  48 0
 3-21G
 ****


