%nproc=1
%NoSave
%Mem=1900MB
#P OB98/GEN NMR

erre ene a

0 1
  C        6.355      31.432     -46.812
  O        6.673      31.605     -45.442
  P        6.511      30.330     -44.476
  C        5.214      31.394     -42.494
  O        6.457      30.902     -42.978
  C        5.179      31.408     -40.964
  O        5.354      30.055     -40.479
  C        6.255      32.284     -40.322
  O        5.686      32.898     -39.165
  C        7.308      31.286     -39.882
  O        8.100      31.792     -38.809
  C        6.438      30.069     -39.528
  N        7.195      28.821     -39.561
  C        7.509      28.241     -38.329
  O        7.218      28.821     -37.283
  N        8.187      27.048     -38.313
  C        8.611      26.537     -39.426
  N        9.277      25.353     -39.359
  C        8.409      27.181     -40.738
  C        7.682      28.298     -40.734
  O        7.950      29.638     -44.557
  O        5.410      29.398     -44.858
  H        7.520      31.888     -38.022
  H        7.875      28.670     -44.464
  H        8.815      26.731     -41.633
  H        7.463      28.826     -41.652
  H        6.001      30.185     -38.528
  H        7.973      31.050     -40.722
  H        6.636      33.054     -40.999
  H        4.181      31.739     -40.648
  H        9.416      24.938     -38.446
  H        4.411      30.742     -42.848
  H        9.645      24.881     -40.173
  H        5.040      32.398     -42.893
  P        5.779      34.494     -39.048
  C        6.823      34.423     -36.704
  O        5.701      34.801     -37.475
  O        4.314      34.935     -39.533
  O        6.839      35.201     -39.824
  H        4.259      35.907     -39.568
  H        6.696      34.809     -35.690
  H        7.739      34.842     -37.129
  H        6.894      33.333     -36.658
  H        6.507      32.354     -47.333
  H        5.332      31.134     -46.906
  H        6.986      30.677     -47.232

 3  4  5  6  7  8  9  10  11  12  13  21  23  27  28  29  30  32 0
 6-311+G(2d,p)
 ****
 34  35 0
 6-311+G(2d,p)
 ****
 1  2  14  15  16  17  18  19  20  22  24  25  26 0
 3-21G
 ****
 31  33  36  37  38  39  40  41  42  43  44  45  46 0
 3-21G
 ****


