%nproc=1
%NoSave
%Mem=1900MB
#P OB98/GEN NMR

erre ene a

0 1
  C      -46.247     146.969    -241.671
  O      -46.392     145.563    -241.628
  H      -46.873     147.388    -242.463
  H      -46.563     147.386    -240.711
  H      -45.201     147.236    -241.843
  P      -45.990     144.767    -242.964
  C      -48.364     144.694    -243.992
  O      -47.043     145.205    -244.097
  C      -49.185     145.112    -245.209
  O      -50.554     144.674    -245.003
  C      -49.203     146.630    -245.462
  O      -48.880     146.916    -246.829
  C      -50.644     147.032    -245.210
  O      -51.083     148.086    -246.059
  C      -51.401     145.734    -245.465
  N      -55.966     147.986    -245.171
  C      -55.050     147.954    -246.162
  N      -53.896     147.257    -246.216
  C      -53.743     146.506    -245.112
  C      -54.604     146.415    -244.030
  C      -55.756     147.218    -244.077
  N      -56.663     147.293    -243.043
  N      -54.107     145.544    -243.078
  C      -52.944     145.150    -243.558
  N      -52.675     145.717    -244.777
  O      -46.402     143.256    -242.625
  O      -44.550     144.872    -243.338
  H      -52.057     148.055    -246.079
  H      -45.604     142.697    -242.660
  H      -55.266     148.578    -247.024
  H      -52.243     144.499    -243.049
  H      -51.587     145.575    -246.534
  H      -50.747     147.357    -244.169
  H      -48.514     147.173    -244.806
  H      -48.805     144.582    -246.089
  H      -48.839     145.087    -243.087
  H      -57.396     147.980    -243.109
  H      -56.453     146.809    -242.181
  H      -48.318     143.602    -243.917
  P      -47.333     147.232    -247.142
  C      -47.522     149.822    -247.204
  O      -46.991     148.682    -246.540
  O      -47.322     147.455    -248.728
  O      -46.403     146.137    -246.739
  H      -46.687     146.841    -249.145
  H      -47.212     150.709    -246.692
  H      -48.591     149.767    -247.207
  H      -47.163     149.847    -248.212

 6  7  8  9  10  11  12  13  14  15  25  28  32  33  34  35 0
 6-311+G(2d,p)
 ****
 36  39  40 0
 6-311+G(2d,p)
 ****
 1  2  3  4  5  16  17  18  19  20  21  22  23  24 0
 3-21G
 ****
 26  27  29  30  31  37  38  41  42  43  44  45  46  47  48 0
 3-21G
 ****


