%nproc=1
%NoSave
%Mem=1900MB
#P OB98/GEN NMR

erre ene a

0 1
  C      -75.664     207.018     -56.888
  O      -76.404     207.687     -55.883
  P      -76.892     209.198     -56.085
  C      -74.814     210.026     -54.831
  O      -75.602     210.148     -56.003
  C      -73.939     211.263     -54.607
  O      -73.168     211.096     -53.386
  C      -72.948     211.542     -55.748
  O      -72.882     212.963     -55.916
  C      -71.635     211.004     -55.213
  O      -70.511     211.582     -55.852
  C      -71.781     211.336     -53.717
  N      -70.895     210.546     -52.887
  C      -71.015     210.716     -51.497
  O      -71.745     211.596     -51.043
  N      -70.292     209.891     -50.673
  C      -69.396     209.104     -51.181
  N      -68.742     208.256     -50.332
  C      -69.066     209.080     -52.618
  C      -69.872     209.788     -53.408
  O      -78.025     209.617     -55.204
  O      -77.306     209.282     -57.627
  H      -78.213     209.633     -57.698
  H      -69.692     211.214     -55.453
  H      -68.222     208.507     -52.984
  H      -69.739     209.814     -54.489
  H      -71.591     212.402     -53.540
  H      -71.595     209.918     -55.355
  H      -73.255     211.084     -56.698
  H      -74.598     212.124     -54.461
  H      -69.027     208.268     -49.359
  H      -74.171     209.153     -54.944
  H      -68.280     207.411     -50.668
  H      -75.461     209.850     -53.959
  P      -73.476     213.607     -57.260
  C      -71.123     214.553     -57.839
  O      -72.259     213.829     -58.283
  O      -73.799     215.106     -56.791
  O      -74.717     212.972     -57.815
  H      -74.501     215.476     -57.362
  H      -70.433     214.667     -58.679
  H      -70.622     214.013     -57.040
  H      -71.423     215.550     -57.496
  H      -75.436     206.025     -56.562
  H      -74.754     207.550     -57.075
  H      -76.242     206.974     -57.787

 3  4  5  6  7  8  9  10  11  12  13  24  27  28  29  30  32 0
 6-311+G(2d,p)
 ****
 34  35 0
 6-311+G(2d,p)
 ****
 1  2  14  15  16  17  18  19  20  21  22  23  25  26 0
 3-21G
 ****
 31  33  36  37  38  39  40  41  42  43  44  45  46 0
 3-21G
 ****


