%nproc=1
%NoSave
%Mem=1900MB
#P OB98/GEN NMR

erre ene a

0 1
  C      128.235      31.191    -166.710
  O      127.609      29.914    -166.831
  P      126.041      29.653    -166.691
  C      124.765      27.387    -167.037
  O      125.818      28.095    -166.398
  C      125.061      25.885    -167.208
  O      126.263      25.717    -168.006
  C      125.344      25.237    -165.849
  O      124.274      24.811    -165.028
  C      126.367      24.146    -166.149
  O      125.761      22.873    -166.367
  C      127.042      24.644    -167.433
  N      131.761      23.406    -165.877
  C      130.605      22.649    -165.852
  N      130.702      21.419    -165.297
  N      129.455      23.065    -166.312
  C      129.478      24.339    -166.758
  C      130.555      25.200    -166.817
  C      131.839      24.707    -166.357
  O      132.893      25.333    -166.368
  N      130.193      26.427    -167.312
  C      128.898      26.320    -167.529
  N      128.418      25.069    -167.214
  O      125.187      30.273    -167.746
  O      125.672      30.359    -165.286
  H      125.388      22.567    -165.521
  H      124.758      30.699    -165.376
  H      132.624      23.025    -165.533
  H      128.265      27.112    -167.916
  H      127.080      23.849    -168.191
  H      127.056      24.025    -165.308
  H      131.524      21.086    -164.819
  H      125.881      25.980    -165.248
  H      129.820      20.950    -165.080
  H      124.260      25.391    -167.764
  H      124.610      27.857    -168.012
  H      123.834      27.517    -166.481
  P      123.815      25.483    -163.648
  C      121.824      25.347    -162.040
  O      122.414      24.836    -163.221
  O      123.402      26.975    -164.060
  O      124.856      25.499    -162.575
  H      123.353      27.548    -163.271
  H      121.062      24.644    -161.687
  H      121.344      26.308    -162.255
  H      122.572      25.482    -161.251
  H      129.291      31.085    -166.847
  H      128.040      31.593    -165.738
  H      127.843      31.852    -167.455

 3  4  5  6  7  8  9  10  11  12  23  26  30  31 0
 6-311+G(2d,p)
 ****
 33  35  36  37  38 0
 6-311+G(2d,p)
 ****
 1  2  13  14  15  16  17  18  19  20  21  22  24  25 0
 3-21G
 ****
 27  28  29  32  34  39  40  41  42  43  44  45  46  47  48  49 0
 3-21G
 ****


