%nproc=1
%NoSave
%Mem=1900MB
#P OB98/GEN NMR

erre ene a

0 1
  C      252.509     743.998      23.491
  O      251.854     745.271      23.483
  P      252.400     746.371      24.528
  C      252.268     748.397      22.893
  O      251.796     747.790      24.093
  C      251.415     749.602      22.524
  O      250.084     749.200      22.142
  C      251.218     750.602      23.666
  O      252.347     751.451      23.814
  C      250.013     751.382      23.162
  O      250.455     752.411      22.232
  C      249.195     750.301      22.416
  N      244.208     749.430      22.475
  C      244.993     749.964      21.489
  N      244.359     750.274      20.314
  N      246.280     750.156      21.598
  C      246.772     749.770      22.804
  C      246.081     749.232      23.869
  C      244.666     749.040      23.728
  O      243.903     748.604      24.592
  N      246.924     748.948      24.913
  C      248.124     749.292      24.482
  N      248.088     749.810      23.201
  O      253.950     746.501      24.134
  O      252.213     745.987      25.966
  H      251.202     752.886      22.662
  H      254.477     746.780      24.908
  H      243.214     749.295      22.325
  H      249.041     749.187      25.027
  H      248.818     750.678      21.458
  H      249.465     751.896      23.963
  H      243.396     750.082      20.128
  H      250.956     750.086      24.589
  H      244.942     750.628      19.567
  H      251.891     750.104      21.665
  H      252.254     747.675      22.084
  H      253.322     748.677      23.040
  P      253.490     750.969      24.847
  C      255.222     751.226      22.918
  O      254.852     751.540      24.244
  O      253.579     749.396      24.559
  O      253.206     751.272      26.265
  H      253.869     748.929      25.355
  H      254.352     751.293      22.244
  H      255.612     750.206      22.891
  H      255.989     751.923      22.576
  H      252.059     743.361      22.759
  H      252.412     743.553      24.459
  H      253.546     744.129      23.261

 3  4  5  6  7  8  9  10  11  12  23  26  30  31  33  0
 6-311+G(2d,p)
 ****
 35  36  37  38 0
 6-311+G(2d,p)
 ****
 1  2  13  14  15  16  17  18  19  20  21  22  24  25  27  28  29 0
 3-21G
 ****
 32  34  39  40  41  42  43  44  45  46  47  48  49 0
 3-21G
 ****


