%nproc=1
%NoSave
%Mem=1900MB
#P OB98/GEN NMR

erre ene a

0 1
  C      528.977     549.708     360.731
  O      529.661     550.656     361.524
  H      528.804     548.811     361.330
  H      529.572     549.440     359.854
  H      528.007     550.111     360.412
  P      530.041     552.046     360.814
  C      527.818     553.081     360.019
  O      528.769     552.988     361.078
  C      526.629     553.945     360.449
  O      525.781     554.161     359.295
  C      525.774     553.305     361.537
  O      525.328     554.318     362.447
  C      524.583     552.737     360.777
  O      523.427     552.614     361.596
  C      524.452     553.745     359.632
  N      519.942     552.265     357.749
  C      520.271     552.941     358.868
  N      521.507     553.306     359.289
  C      522.437     552.945     358.392
  C      522.255     552.246     357.214
  C      520.929     551.887     356.899
  N      520.583     551.176     355.779
  N      523.468     552.022     356.585
  C      524.368     552.589     357.367
  N      523.790     553.146     358.478
  O      530.483     551.944     359.391
  O      531.128     552.639     361.828
  H      523.357     553.419     362.157
  H      530.850     552.534     362.759
  H      519.448     553.217     359.514
  H      525.433     552.608     357.181
  H      523.866     554.624     359.921
  H      524.834     551.740     360.389
  H      526.309     552.526     362.093
  H      527.002     554.932     360.752
  H      527.466     552.084     359.741
  H      519.609     550.975     355.618
  H      521.303     550.909     355.113
  H      528.323     553.528     359.153
  P      525.791     554.225     363.975
  C      528.255     554.743     363.392
  O      527.119     555.117     364.162
  O      525.858     552.858     364.563
  O      524.688     555.117     364.724
  H      524.480     554.706     365.589
  H      529.065     555.409     363.605
  H      528.014     554.797     362.351
  H      528.541     553.742     363.641

 6  7  8  9  10  11  12  13  14  15  25  28  32  33  34  35 0
 6-311+G(2d,p)
 ****
 36  39  40 0
 6-311+G(2d,p)
 ****
 1  2  3  4  5  16  17  18  19  20  21  22  23  24 0
 3-21G
 ****
 26  27  29  30  31  37  38  41  42  43  44  45  46  47 0
 3-21G
 ****
 48 0
 3-21G
 ****


