%nproc=1
%NoSave
%Mem=1900MB
#P OB98/GEN NMR

erre ene a

0 1
  C       32.816    -101.686     457.192
  O       32.264    -101.657     458.494
  P       31.347    -102.866     459.002
  C       32.433    -103.277     461.296
  O       32.233    -103.781     459.978
  C       33.922    -103.261     461.638
  O       34.645    -102.437     460.698
  C       34.238    -102.688     463.012
  O       33.940    -103.620     464.033
  C       35.716    -102.356     462.862
  O       36.523    -103.529     463.062
  C       35.789    -101.899     461.396
  N       38.801     -97.780     461.457
  C       39.033     -99.067     461.782
  N       38.166    -100.106     461.775
  C       36.944     -99.694     461.408
  C       36.546     -98.403     461.078
  C       37.546     -97.418     461.090
  N       37.336     -96.112     460.697
  N       35.195     -98.376     460.784
  C       34.786     -99.615     460.938
  N       35.815    -100.457     461.254
  O       30.619    -103.609     457.929
  O       30.315    -102.165     460.007
  H       37.406    -103.338     462.699
  H       29.404    -102.297     459.677
  H       40.050     -99.307     462.080
  H       33.764     -99.957     460.823
  H       36.682    -102.293     460.891
  H       36.055    -101.603     463.581
  H       33.676    -101.757     463.167
  H       34.303    -104.287     461.547
  H       31.899    -103.929     461.998
  H       38.158     -95.527     460.606
  H       36.513     -95.902     460.141
  H       32.018    -102.267     461.365
  P       32.829    -103.277     465.135
  C       31.545    -105.488     464.976
  O       31.510    -104.096     464.739
  O       32.620    -101.823     465.404
  O       33.347    -104.044     466.438
  H       33.088    -103.541     467.233
  H       32.123    -105.985     464.186
  H       30.526    -105.878     464.962
  H       31.996    -105.715     465.950
  H       33.395    -100.801     457.030
  H       32.027    -101.732     456.471
  H       33.443    -102.547     457.090

 3  4  5  6  7  8  9  10  11  12  22  25  29  30  31  32 0
 6-311+G(2d,p)
 ****
 33  36  37 0
 6-311+G(2d,p)
 ****
 1  2  13  14  15  16  17  18  19  20  21  23  24  26 0
 3-21G
 ****
 27  28  34  35  38  39  40  41  42  43  44  45  46  47  48 0
 3-21G
 ****


