%nproc=1
%NoSave
%Mem=1900MB
#P OB98/GEN NMR

erre ene a

0 1
  C        6.060    -517.377       6.365
  O        5.666    -518.450       7.204
  P        4.131    -518.912       7.124
  C        1.907    -517.877       8.017
  O        3.318    -517.948       8.110
  C        1.396    -516.669       8.805
  O        2.061    -515.468       8.356
  C       -0.098    -516.411       8.655
  O       -0.829    -517.254       9.521
  C       -0.187    -514.930       9.011
  O       -0.185    -514.745      10.442
  C        1.100    -514.371       8.381
  N       -0.142    -510.257       5.715
  C       -0.223    -510.495       7.065
  N       -0.664    -509.469       7.833
  N        0.092    -511.636       7.635
  C        0.505    -512.572       6.747
  C        0.615    -512.469       5.382
  C        0.311    -511.186       4.779
  O        0.468    -510.895       3.594
  N        1.041    -513.640       4.812
  C        1.224    -514.441       5.847
  N        0.921    -513.841       7.043
  O        4.138    -520.326       7.872
  O        3.566    -518.998       5.742
  H       -0.920    -515.261      10.824
  H        4.167    -521.056       7.227
  H       -0.377    -509.361       5.337
  H        1.578    -515.458       5.780
  H        1.534    -513.573       8.987
  H       -1.106    -514.473       8.636
  H       -0.955    -508.572       7.471
  H       -0.408    -516.559       7.613
  H       -0.740    -509.630       8.831
  H        1.660    -516.822       9.857
  H        1.474    -518.788       8.432
  H        1.616    -517.803       6.957
  P       -2.428    -517.259       9.375
  C       -4.098    -515.272       9.386
  O       -2.959    -515.869       9.971
  O       -2.896    -518.343      10.456
  O       -2.925    -517.599       8.011
  H       -3.668    -518.828      10.118
  H       -4.631    -514.700      10.155
  H       -4.789    -516.021       8.967
  H       -3.788    -514.594       8.591
  H        7.099    -517.170       6.515
  H        5.485    -516.507       6.605
  H        5.893    -517.644       5.342

 3  4  5  6  7  8  9  10  11  12  23  26  30  31 0
 6-311+G(2d,p)
 ****
 33  35  36  37  38 0
 6-311+G(2d,p)
 ****
 1  2  13  14  15  16  17  18  19  20  21  22  24  25 0
 3-21G
 ****
 27  28  29  32  34  39  40  41  42  43  44  45  46  47  48  49 0
 3-21G
 ****


