%nproc=1
%NoSave
%Mem=1900MB
#P OB98/GEN NMR

erre ene a

0 1
  C      405.533      61.306     -92.655
  O      406.201      61.738     -91.483
  P      406.084      60.907     -90.119
  C      404.400      61.927     -88.453
  O      404.569      61.123     -89.615
  C      404.124      63.385     -88.826
  O      402.979      63.479     -89.693
  C      403.826      64.291     -87.638
  O      405.022      64.624     -86.945
  C      403.143      65.468     -88.323
  O      404.102      66.386     -88.873
  C      402.351      64.764     -89.453
  N      400.931      64.627     -89.139
  C      400.176      65.808     -89.192
  O      400.721      66.878     -89.457
  N      398.836      65.742     -88.901
  C      398.306      64.606     -88.551
  N      396.976      64.603     -88.251
  C      399.068      63.352     -88.463
  C      400.367      63.431     -88.765
  O      407.139      61.185     -89.104
  O      406.070      59.384     -90.627
  H      403.585      67.053     -89.363
  H      406.975      59.088     -90.912
  H      398.589      62.431     -88.159
  H      401.010      62.554     -88.713
  H      402.440      65.326     -90.397
  H      402.502      66.033     -87.636
  H      403.112      63.793     -86.962
  H      405.001      63.769     -89.376
  H      396.487      65.495     -88.306
  H      405.310      61.871     -87.854
  H      396.472      63.787     -87.945
  H      403.570      61.521     -87.854
  P      404.966      64.986     -85.383
  C      405.047      67.452     -84.652
  O      404.261      66.423     -85.244
  O      406.254      64.824     -84.643
  O      403.843      63.990     -84.809
  H      404.171      63.605     -83.965
  H      404.605      68.421     -84.915
  H      406.072      67.415     -85.027
  H      405.036      67.334     -83.568
  H      405.734      61.990     -93.453
  H      404.479      61.271     -92.473
  H      405.881      60.331     -92.925

 3  4  5  6  7  8  9  10  11  12  13  23  27  28  29  30  32 0
 6-311+G(2d,p)
 ****
 34  35 0
 6-311+G(2d,p)
 ****
 1  2  14  15  16  17  18  19  20  21  22  24  25  26 0
 3-21G
 ****
 31  33  36  37  38  39  40  41  42  43  44  45  46 0
 3-21G
 ****


