%nproc=1
%NoSave
%Mem=1900MB
#P OB98/GEN NMR

erre ene a

0 1
  C      -39.797      23.771     -32.584
  O      -39.346      24.844     -33.387
  H      -39.967      24.142     -31.570
  H      -39.038      22.986     -32.550
  H      -40.736      23.369     -32.976
  P      -39.213      24.557     -34.963
  C      -40.514      26.753     -35.570
  O      -39.324      25.992     -35.669
  C      -40.205      28.247     -35.671
  O      -39.652      28.694     -34.409
  C      -39.204      28.597     -36.771
  O      -39.587      29.843     -37.356
  C      -37.893      28.758     -36.021
  O      -36.972      29.584     -36.729
  C      -38.376      29.311     -34.673
  N      -37.425      29.052     -33.594
  C      -36.857      30.169     -32.974
  O      -37.147      31.303     -33.356
  N      -35.944      29.978     -31.969
  C      -35.574      28.775     -31.656
  N      -34.650      28.652     -30.666
  C      -36.107      27.569     -32.319
  C      -37.025      27.778     -33.260
  O      -40.617      23.862     -35.286
  O      -38.018      23.747     -35.339
  H      -36.224      29.792     -36.126
  H      -41.371      24.280     -34.837
  H      -35.756      26.588     -32.033
  H      -37.475      26.948     -33.793
  H      -38.537      30.395     -34.737
  H      -37.422      27.777     -35.879
  H      -39.129      27.837     -37.548
  H      -41.149      28.787     -35.808
  H      -34.295      29.504     -30.250
  H      -41.017      26.549     -34.620
  H      -34.253      27.770     -30.378
  H      -41.181      26.447     -36.382
  P      -39.761      29.942     -38.945
  C      -41.901      31.373     -38.809
  O      -40.572      31.280     -39.297
  O      -40.254      28.707     -39.622
  O      -38.276      30.304     -39.443
  H      -38.113      29.819     -40.275
  H      -42.327      32.307     -39.111
  H      -41.894      31.313     -37.741
  H      -42.484      30.569     -39.207

 6  7  8  9  10  11  12  13  14  15  16  26  30  31  32  33  35 0
 6-311+G(2d,p)
 ****
 37  38 0
 6-311+G(2d,p)
 ****
 1  2  3  4  5  17  18  19  20  21  22  23  24  25 0
 3-21G
 ****
 27  28  29  34  36  39  40  41  42  43  44  45  46 0
 3-21G
 ****


