%nproc=1
%NoSave
%Mem=1900MB
#P OB98/GEN NMR

erre ene a

0 1
  C      504.561     271.285      31.381
  O      505.142     272.254      30.527
  P      504.419     273.680      30.415
  C      506.392     275.214      29.700
  O      505.212     274.519      29.306
  C      507.191     275.684      28.479
  O      507.778     274.534      27.822
  C      506.368     276.436      27.442
  O      507.182     277.493      26.906
  C      506.115     275.403      26.357
  O      505.862     276.007      25.094
  C      507.411     274.583      26.436
  N      507.253     273.242      25.876
  C      507.444     273.089      24.497
  O      507.664     274.091      23.799
  N      507.332     271.844      23.939
  C      506.954     270.843      24.666
  N      506.852     269.623      24.073
  C      506.613     270.974      26.108
  C      506.802     272.182      26.640
  O      504.834     274.405      31.794
  O      502.930     273.617      30.251
  H      506.537     276.710      24.941
  H      504.127     275.003      32.105
  H      506.254     270.112      26.658
  H      506.599     272.369      27.703
  H      508.222     275.075      25.887
  H      505.237     274.786      26.627
  H      505.444     276.871      27.854
  H      508.022     276.309      28.838
  H      507.079     269.561      23.085
  H      507.023     274.530      30.279
  H      506.563     268.791      24.564
  H      506.115     276.056      30.333
  P      506.457     278.786      26.291
  C      508.051     280.504      27.342
  O      507.611     279.880      26.147
  O      505.657     279.316      27.587
  O      505.524     278.594      25.143
  H      505.110     280.093      27.333
  H      508.924     281.125      27.107
  H      508.321     279.758      28.086
  H      507.251     281.156      27.752
  H      505.147     270.390      31.356
  H      503.566     271.070      31.051
  H      504.531     271.663      32.381

 3  4  5  6  7  8  9  10  11  12  13  21  23  27  28  29  30  32 0
 6-311+G(2d,p)
 ****
 34  35 0
 6-311+G(2d,p)
 ****
 1  2  14  15  16  17  18  19  20  22  24  25  26 0
 3-21G
 ****
 31  33  36  37  38  39  40  41  42  43  44  45  46 0
 3-21G
 ****


