%nproc=1
%NoSave
%Mem=1900MB
#P OB98/GEN NMR

erre ene a

0 1
  C     1593.401     299.092     -16.567
  O     1592.097     299.544     -16.964
  P     1591.351     300.570     -15.982
  C     1591.710     302.690     -17.470
  O     1592.013     302.000     -16.258
  C     1590.955     303.986     -17.177
  O     1591.774     304.851     -16.402
  C     1590.576     304.757     -18.413
  O     1589.443     304.182     -19.052
  C     1590.314     306.137     -17.828
  O     1588.962     306.272     -17.377
  C     1591.320     306.213     -16.661
  N     1592.422     307.104     -16.904
  C     1592.330     308.361     -16.283
  O     1591.358     308.632     -15.600
  N     1593.353     309.267     -16.501
  C     1594.353     308.964     -17.277
  N     1595.312     309.888     -17.432
  C     1594.455     307.661     -17.954
  C     1593.482     306.788     -17.738
  O     1591.885     300.157     -14.549
  O     1589.845     300.522     -16.077
  H     1588.397     306.063     -18.147
  H     1591.226     300.379     -13.845
  H     1595.318     307.443     -18.578
  H     1593.471     305.809     -18.201
  H     1590.805     306.544     -15.756
  H     1590.472     306.934     -18.588
  H     1591.419     304.804     -19.117
  H     1590.061     303.733     -16.586
  H     1595.204     310.772     -16.961
  H     1591.077     302.021     -18.085
  H     1596.151     309.733     -17.995
  H     1592.631     302.881     -18.013
  P     1589.384     304.206     -20.646
  C     1590.015     301.710     -20.677
  O     1590.366     303.008     -21.113
  O     1590.260     305.503     -20.997
  O     1588.037     304.242     -21.281
  H     1590.209     305.672     -21.957
  H     1590.662     300.993     -21.180
  H     1588.977     301.489     -20.905
  H     1590.182     301.622     -19.589
  H     1593.784     298.417     -17.304
  H     1593.333     298.590     -15.625
  H     1594.057     299.932     -16.477

 3  4  5  6  7  8  9  10  11  12  13  21  23  27  28  29  30  32 0
 6-311+G(2d,p)
 ****
 34  35 0
 6-311+G(2d,p)
 ****
 1  2  14  15  16  17  18  19  20  22  24  25  26 0
 3-21G
 ****
 31  33  36  37  38  39  40  41  42  43  44  45  46 0
 3-21G
 ****


