%nproc=1
%NoSave
%Mem=1900MB
#P OB98/GEN NMR

erre ene a

0 1
  C     -264.276    -964.833     744.409
  O     -264.805    -965.516     743.304
  P     -264.068    -965.608     741.890
  C     -264.018    -963.069     741.340
  O     -264.529    -964.341     740.986
  C     -263.471    -962.269     740.146
  O     -262.288    -962.929     739.625
  C     -264.500    -962.285     739.005
  O     -265.564    -961.358     738.992
  C     -263.666    -962.320     737.735
  O     -263.507    -961.026     737.136
  C     -262.315    -962.861     738.208
  N     -258.901    -965.684     735.719
  C     -258.743    -964.465     736.314
  N     -257.558    -963.844     736.049
  N     -259.636    -963.894     737.088
  C     -260.809    -964.596     737.168
  C     -261.068    -965.848     736.639
  C     -260.061    -966.482     735.814
  O     -260.195    -967.536     735.209
  N     -262.382    -966.230     736.859
  C     -262.891    -965.207     737.507
  N     -261.996    -964.184     737.685
  O     -264.012    -966.967     741.245
  O     -262.561    -965.203     742.290
  H     -262.891    -961.121     736.389
  H     -261.950    -965.719     741.725
  H     -258.208    -966.037     735.071
  H     -263.916    -965.135     737.824
  H     -261.515    -962.190     737.894
  H     -264.164    -962.948     736.961
  H     -256.922    -964.167     735.357
  H     -265.004    -963.257     739.046
  H     -257.492    -962.860     736.323
  H     -263.147    -961.267     740.445
  H     -263.232    -963.219     742.089
  H     -264.802    -962.477     741.844
  P     -267.126    -961.694     738.868
  C     -267.010    -961.595     736.311
  O     -267.651    -961.107     737.463
  O     -267.826    -960.732     739.927
  O     -267.474    -963.120     739.127
  H     -268.710    -961.112     740.174
  H     -267.209    -960.952     735.465
  H     -267.388    -962.599     736.064
  H     -265.932    -961.661     736.469
  H     -264.951    -964.914     745.235
  H     -264.141    -963.801     744.159
  H     -263.333    -965.262     744.675

 3  4  5  6  7  8  9  10  11  12  23  26  30  31 0
 6-311+G(2d,p)
 ****
 33  35  36  37  38 0
 6-311+G(2d,p)
 ****
 1  2  13  14  15  16  17  18  19  20  21  22  24  25 0
 3-21G
 ****
 27  28  29  32  34  39  40  41  42  43  44  45  46  47  48  49 0
 3-21G
 ****


