%nproc=1
%NoSave
%Mem=1900MB
#P OB98/GEN NMR

erre ene a

0 1
  C      112.108     336.571     166.538
  O      113.320     335.862     166.689
  H      111.942     337.175     167.433
  H      111.277     335.868     166.433
  H      112.143     337.236     165.671
  P      113.952     335.126     165.413
  C      113.187     333.264     163.802
  O      112.939     333.943     165.026
  C      112.792     331.788     163.910
  O      113.823     331.074     164.650
  C      111.459     331.550     164.638
  O      110.866     330.371     164.073
  C      111.922     331.276     166.053
  O      110.920     330.647     166.817
  C      113.188     330.456     165.786
  N      114.074     330.394     166.950
  C      114.195     329.162     167.575
  O      113.575     328.158     167.213
  N      115.016     329.118     168.665
  C      115.669     330.183     169.214
  O      116.372     330.093     170.214
  C      115.469     331.475     168.535
  C      114.699     331.521     167.445
  O      115.378     334.709     165.547
  O      113.744     336.167     164.213
  H      110.222     331.294     167.061
  H      114.458     336.067     163.556
  H      115.124     328.226     169.122
  H      115.968     332.342     168.954
  H      114.530     332.458     166.927
  H      112.928     329.426     165.504
  H      112.180     332.213     166.560
  H      110.771     332.397     164.565
  H      112.771     331.357     162.901
  H      114.258     333.344     163.582
  H      112.620     333.741     162.997
  P      109.691     330.447     162.980
  C      107.186     331.053     162.940
  O      108.289     330.642     163.743
  O      109.696     329.324     161.993
  O      109.912     331.852     162.244
  H      109.568     331.800     161.331
  H      106.314     331.149     163.553
  H      107.008     330.323     162.178
  H      107.408     331.996     162.485

 6  7  8  9  10  11  12  13  14  15  16  26  31  32  33  34  35 0
 6-311+G(2d,p)
 ****
 36  37 0
 6-311+G(2d,p)
 ****
 1  2  3  4  5  17  18  19  20  21  22  23  24  25 0
 3-21G
 ****
 27  28  29  30  38  39  40  41  42  43  44  45 0
 3-21G
 ****


