%nproc=1
%NoSave
%Mem=1900MB
#P OB98/GEN NMR

erre ene a

0 1
  C     -315.190     670.829      48.547
  O     -315.212     669.406      48.521
  P     -314.651     668.683      47.196
  C     -316.395     666.763      47.360
  O     -315.016     667.126      47.370
  C     -316.553     665.257      47.260
  O     -315.980     664.786      46.019
  C     -315.845     664.464      48.358
  O     -316.605     664.432      49.559
  C     -315.757     663.085      47.716
  O     -317.009     662.393      47.889
  C     -315.532     663.419      46.237
  N     -311.839     660.272      44.774
  C     -313.155     660.004      45.100
  N     -313.551     658.715      45.000
  N     -314.005     660.921      45.501
  C     -313.491     662.161      45.508
  C     -312.198     662.564      45.205
  C     -311.250     661.531      44.819
  O     -310.064     661.702      44.574
  N     -312.051     663.916      45.313
  C     -313.254     664.353      45.648
  N     -314.150     663.326      45.811
  O     -313.069     668.723      47.409
  O     -315.053     669.315      45.906
  H     -317.089     662.178      48.832
  H     -312.614     668.682      46.542
  H     -311.236     659.538      44.456
  H     -313.508     665.398      45.793
  H     -316.139     662.784      45.584
  H     -314.979     662.459      48.159
  H     -312.980     657.998      44.585
  H     -314.834     664.852      48.534
  H     -314.521     658.505      45.204
  H     -317.626     665.022      47.243
  H     -316.886     667.234      46.494
  H     -316.867     667.137      48.276
  P     -315.989     665.217      50.819
  C     -315.962     663.073      52.300
  O     -316.469     664.395      52.097
  O     -316.854     666.556      50.866
  O     -314.520     665.488      50.717
  H     -316.338     667.277      51.299
  H     -314.919     663.005      51.985
  H     -316.573     662.368      51.742
  H     -316.025     662.840      53.361
  H     -315.588     671.175      49.478
  H     -315.783     671.210      47.742
  H     -314.182     671.172      48.440

 3  4  5  6  7  8  9  10  11  12  23  26  30  31  33  0
 6-311+G(2d,p)
 ****
 35  36  37  38 0
 6-311+G(2d,p)
 ****
 1  2  13  14  15  16  17  18  19  20  21  22  24  25  27  28  29 0
 3-21G
 ****
 32  34  39  40  41  42  43  44  45  46  47  48  49 0
 3-21G
 ****


