%nproc=1
%NoSave
%Mem=1900MB
#P OB98/GEN NMR

erre ene a

0 1
  C      840.879    -494.356     134.424
  O      841.171    -495.760     134.335
  P      841.278    -496.447     132.881
  C      843.824    -497.007     133.050
  O      842.789    -496.335     132.353
  C      845.183    -496.403     132.703
  O      845.247    -495.021     133.120
  C      846.375    -497.070     133.379
  O      846.709    -498.301     132.768
  C      847.459    -495.998     133.240
  O      848.071    -496.067     131.937
  C      846.623    -494.699     133.388
  N      846.796    -494.077     134.694
  C      848.000    -493.411     134.913
  O      848.923    -493.390     134.087
  N      848.140    -492.792     136.125
  C      847.236    -492.837     137.157
  O      847.424    -492.285     138.233
  C      846.018    -493.625     136.893
  C      845.862    -494.200     135.702
  O      840.519    -495.365     131.947
  O      840.630    -497.795     132.756
  H      848.760    -495.369     131.907
  H      840.128    -495.818     131.179
  H      849.002    -492.286     136.288
  H      845.283    -493.702     137.694
  H      844.968    -494.780     135.506
  H      846.930    -493.989     132.610
  H      848.252    -496.113     133.975
  H      846.152    -497.216     134.454
  H      845.304    -496.427     131.608
  H      843.816    -498.067     132.766
  H      843.631    -496.941     134.120
  P      846.384    -499.645     133.600
  C      844.435    -500.157     131.937
  O      844.859    -499.987     133.269
  O      846.374    -499.072     135.100
  O      847.377    -500.744     133.359
  H      846.029    -498.150     135.142
  H      845.223    -500.597     131.310
  H      844.144    -499.173     131.526
  H      843.559    -500.810     131.918
  H      840.844    -494.064     135.453
  H      839.933    -494.159     133.965
  H      841.643    -493.800     133.921

 3  4  5  6  7  8  9  10  11  12  13  23  28  29  30  31  32 0
 6-311+G(2d,p)
 ****
 33  34 0
 6-311+G(2d,p)
 ****
 1  2  14  15  16  17  18  19  20  21  22  24  25  26 0
 3-21G
 ****
 27  35  36  37  38  39  40  41  42  43  44  45 0
 3-21G
 ****


