%nproc=1
%NoSave
%Mem=1900MB
#P OB98/GEN NMR

erre ene a

0 1
  C      368.451     478.695      25.768
  O      369.245     477.883      24.932
  H      368.817     479.719      25.718
  H      368.536     478.341      26.804
  H      367.401     478.670      25.453
  P      368.670     476.438      24.537
  C      370.853     475.276      25.317
  O      369.445     475.364      25.453
  C      371.373     473.990      25.981
  O      371.143     474.090      27.413
  C      370.681     472.710      25.482
  O      371.639     471.645      25.440
  C      369.693     472.402      26.612
  O      369.322     471.029      26.647
  C      370.497     472.865      27.827
  N      370.094     471.850      32.725
  C      371.155     471.685      31.854
  N      372.280     471.116      32.362
  N      371.134     472.063      30.602
  C      369.955     472.637      30.238
  C      368.828     472.838      30.990
  C      368.872     472.410      32.374
  O      367.938     472.497      33.185
  N      367.829     473.396      30.236
  C      368.337     473.504      29.032
  N      369.640     473.056      28.978
  O      369.281     476.199      23.081
  O      367.178     476.319      24.541
  H      368.661     470.903      27.361
  H      368.639     476.478      22.399
  H      370.167     471.528      33.680
  H      367.817     473.874      28.153
  H      371.276     472.144      28.114
  H      368.776     473.006      26.479
  H      372.397     470.837      33.317
  H      370.197     472.804      24.510
  H      373.077     471.043      31.752
  H      372.454     473.931      25.825
  H      371.323     476.137      25.800
  H      371.121     475.284      24.257
  P      372.600     471.547      24.163
  C      371.556     469.612      22.768
  O      371.735     471.016      22.922
  O      373.557     470.309      24.506
  O      373.394     472.790      23.902
  H      374.449     470.468      24.146
  H      370.960     469.421      21.900
  H      371.063     469.218      23.632
  H      372.510     469.141      22.656

 6  7  8  9  10  11  12  13  14  15  26  29  33  34 0
 6-311+G(2d,p)
 ****
 36  38  39  40  41 0
 6-311+G(2d,p)
 ****
 1  2  3  4  5  16  17  18  19  20  21  22  23  24  25 0
 3-21G
 ****
 27  28  30  31  32  35  37  42  43  44  45  46  47 0
 3-21G
 ****
 48  49 0
 3-21G
 ****


