%nproc=1
%NoSave
%Mem=1900MB
#P OB98/GEN NMR

erre ene a

0 1
  C      -27.984      53.930     -61.799
  O      -27.373      54.756     -62.776
  P      -28.123      56.116     -63.180
  C      -28.331      55.232     -65.650
  O      -28.962      55.774     -64.501
  C      -29.189      54.115     -66.247
  O      -29.643      53.231     -65.200
  C      -30.453      54.594     -66.949
  O      -30.174      55.127     -68.234
  C      -31.288      53.319     -66.957
  O      -30.869      52.455     -68.028
  C      -30.922      52.693     -65.596
  N      -31.934      52.923     -64.566
  C      -33.137      52.241     -64.724
  O      -33.363      51.482     -65.665
  N      -34.087      52.478     -63.766
  C      -33.978      53.357     -62.728
  O      -34.877      53.563     -61.922
  C      -32.697      54.072     -62.632
  C      -31.750      53.826     -63.540
  O      -26.887      56.990     -63.696
  O      -28.897      56.715     -62.056
  H      -26.166      56.431     -64.036
  H      -30.895      52.993     -68.843
  H      -34.959      51.978     -63.846
  H      -32.577      54.784     -61.825
  H      -30.804      54.351     -63.490
  H      -30.779      51.611     -65.702
  H      -32.356      53.515     -67.093
  H      -30.953      55.355     -66.337
  H      -28.564      53.533     -66.936
  H      -27.355      54.831     -65.363
  H      -28.178      56.031     -66.382
  P      -30.560      56.671     -68.470
  C      -32.289      56.115     -70.350
  O      -32.041      56.674     -69.079
  O      -29.621      57.039     -69.713
  O      -30.358      57.531     -67.266
  H      -29.593      56.339     -70.386
  H      -33.355      55.887     -70.432
  H      -31.719      55.195     -70.500
  H      -32.022      56.839     -71.125
  H      -27.376      53.065     -61.632
  H      -28.950      53.626     -62.143
  H      -28.087      54.476     -60.884

 3  4  5  6  7  8  9  10  11  12  13  24  28  29  30  31  32 0
 6-311+G(2d,p)
 ****
 33  34 0
 6-311+G(2d,p)
 ****
 1  2  14  15  16  17  18  19  20  21  22  23  25  26  27 0
 3-21G
 ****
 35  36  37  38  39  40  41  42  43  44  45 0
 3-21G
 ****


