%nproc=1
%NoSave
%Mem=1900MB
#P OB98/GEN NMR

erre ene a

0 1
  C      155.146     208.970     373.237
  O      156.410     208.985     373.858
  H      154.833     210.004     373.061
  H      154.405     208.495     373.885
  H      155.193     208.453     372.276
  P      157.098     207.594     374.275
  C      156.237     207.955     376.665
  O      157.380     207.717     375.856
  C      156.495     207.541     378.114
  O      156.676     206.101     378.184
  C      157.743     208.195     378.733
  O      157.427     208.706     380.030
  C      158.723     207.039     378.862
  O      159.703     207.251     379.873
  C      157.761     205.870     379.100
  N      158.404     204.580     378.892
  C      158.878     203.933     380.037
  O      158.738     204.454     381.147
  N      159.548     202.746     379.898
  C      159.766     202.267     378.712
  N      160.462     201.101     378.642
  C      159.308     202.930     377.475
  C      158.635     204.069     377.636
  O      158.282     207.214     373.449
  O      155.915     206.517     374.212
  H      160.298     207.977     379.583
  H      156.307     205.619     374.103
  H      159.520     202.494     376.509
  H      158.260     204.628     376.786
  H      157.355     205.899     380.123
  H      159.246     206.900     377.908
  H      158.152     209.000     378.122
  H      155.596     207.766     378.705
  H      160.762     200.684     379.516
  H      155.391     207.393     376.251
  H      160.711     200.646     377.777
  H      156.008     209.025     376.635
  P      156.823     210.190     380.080
  C      159.087     210.894     381.131
  O      157.675     211.038     381.142
  O      155.402     209.987     380.789
  O      156.675     210.818     378.731
  H      154.686     210.128     380.146
  H      159.515     211.516     381.889
  H      159.468     211.184     380.174
  H      159.343     209.873     381.322

 6  7  8  9  10  11  12  13  14  15  16  26  30  31  32  33  35 0
 6-311+G(2d,p)
 ****
 37  38 0
 6-311+G(2d,p)
 ****
 1  2  3  4  5  17  18  19  20  21  22  23  24  25 0
 3-21G
 ****
 27  28  29  34  36  39  40  41  42  43  44  45  46 0
 3-21G
 ****


