%nproc=1
%NoSave
%Mem=1900MB
#P OB98/GEN NMR

erre ene a

0 1
  C     -209.855    -269.928     740.332
  O     -209.371    -270.594     741.477
  H     -210.943    -270.047     740.295
  H     -209.429    -270.354     739.424
  H     -209.629    -268.860     740.381
  P     -207.789    -270.620     741.741
  C     -207.366    -272.903     740.607
  O     -207.137    -271.492     740.563
  C     -206.020    -273.657     740.590
  O     -206.285    -275.034     740.976
  C     -205.369    -273.654     739.201
  O     -204.015    -273.202     739.219
  C     -205.638    -275.071     738.689
  O     -204.697    -275.533     737.744
  C     -205.705    -275.897     739.982
  N     -206.493    -277.123     739.852
  C     -205.793    -278.316     739.670
  O     -204.575    -278.424     739.625
  N     -206.566    -279.442     739.552
  C     -207.936    -279.492     739.568
  O     -208.573    -280.528     739.460
  C     -208.621    -278.195     739.736
  C     -207.880    -277.095     739.862
  O     -207.374    -271.015     743.118
  O     -207.309    -269.134     741.390
  H     -203.806    -275.480     738.173
  H     -207.127    -268.647     742.217
  H     -206.081    -280.314     739.438
  H     -209.703    -278.196     739.743
  H     -208.342    -276.116     739.996
  H     -204.705    -276.179     740.316
  H     -206.624    -275.085     738.206
  H     -205.863    -272.943     738.532
  H     -205.362    -273.223     741.350
  H     -207.964    -273.171     739.727
  H     -207.925    -273.161     741.513
  P     -203.551    -271.702     738.918
  C     -203.548    -271.735     736.281
  O     -204.141    -271.269     737.493
  O     -202.111    -271.408     739.170
  O     -204.405    -270.809     739.948
  H     -203.854    -270.040     740.182
  H     -204.084    -271.336     735.445
  H     -203.587    -272.804     736.253
  H     -202.528    -271.414     736.237

 6  7  8  9  10  11  12  13  14  15  16  26  31  32  33  34  35 0
 6-311+G(2d,p)
 ****
 36  37 0
 6-311+G(2d,p)
 ****
 1  2  3  4  5  17  18  19  20  21  22  23  24  25 0
 3-21G
 ****
 27  28  29  30  38  39  40  41  42  43  44  45 0
 3-21G
 ****


