%nproc=1
%NoSave
%Mem=1900MB
#P OB98/GEN NMR

erre ene a

0 1
  C     -423.554    -119.787     824.304
  O     -423.469    -120.949     823.491
  P     -424.722    -121.438     822.623
  C     -424.442    -119.415     821.058
  O     -425.313    -120.104     821.952
  C     -424.882    -119.654     819.617
  O     -424.714    -121.059     819.313
  C     -426.346    -119.352     819.305
  O     -426.619    -117.985     819.011
  C     -426.546    -120.182     818.044
  O     -425.986    -119.492     816.908
  C     -425.731    -121.442     818.353
  N     -428.693    -125.459     817.238
  C     -427.986    -124.611     816.458
  N     -427.240    -123.553     816.826
  C     -427.221    -123.435     818.165
  C     -427.884    -124.222     819.089
  C     -428.654    -125.282     818.577
  N     -429.351    -126.158     819.379
  N     -427.644    -123.777     820.379
  C     -426.836    -122.746     820.225
  N     -426.543    -122.508     818.910
  O     -425.704    -122.279     823.362
  O     -424.066    -122.204     821.380
  H     -426.047    -120.100     816.149
  H     -424.732    -122.760     820.936
  H     -428.036    -124.802     815.386
  H     -426.442    -122.148     821.032
  H     -425.213    -121.833     817.471
  H     -427.601    -120.364     817.815
  H     -427.010    -119.725     820.092
  H     -424.219    -119.086     818.952
  H     -423.431    -119.803     821.197
  H     -429.771    -126.958     818.930
  H     -429.192    -126.124     820.378
  H     -424.442    -118.353     821.298
  P     -428.098    -117.445     819.335
  C     -427.338    -116.402     821.615
  O     -428.169    -117.317     820.934
  O     -429.197    -118.232     818.708
  O     -428.035    -115.925     818.844
  H     -427.452    -115.343     819.363
  H     -427.653    -116.354     822.662
  H     -427.421    -115.401     821.183
  H     -426.300    -116.732     821.574
  H     -422.619    -119.630     824.800
  H     -424.327    -119.917     825.032
  H     -423.780    -118.939     823.692

 3  4  5  6  7  8  9  10  11  12  22  25  29  30  31  32 0
 6-311+G(2d,p)
 ****
 33  36  37 0
 6-311+G(2d,p)
 ****
 1  2  13  14  15  16  17  18  19  20  21  23  24  26 0
 3-21G
 ****
 27  28  34  35  38  39  40  41  42  43  44  45  46  47  48 0
 3-21G
 ****


