%nproc=1
%NoSave
%Mem=1900MB
#P OB98/GEN NMR

erre ene a

0 1
  C      -60.457     192.820     -15.506
  O      -59.470     191.807     -15.642
  P      -59.834     190.531     -16.549
  C      -59.501     191.930     -18.712
  O      -60.383     191.129     -17.933
  C      -59.479     191.450     -20.160
  O      -58.806     190.180     -20.252
  C      -60.854     191.233     -20.775
  O      -61.431     192.441     -21.239
  C      -60.505     190.328     -21.945
  O      -59.972     191.112     -23.027
  C      -59.409     189.439     -21.346
  N      -60.906     184.737     -22.682
  C      -60.529     185.804     -23.417
  N      -60.154     187.026     -22.987
  C      -60.233     187.104     -21.648
  C      -60.636     186.111     -20.771
  C      -60.975     184.871     -21.335
  N      -61.332     183.776     -20.582
  N      -60.589     186.565     -19.471
  C      -60.154     187.803     -19.559
  N      -59.916     188.173     -20.853
  O      -61.152     189.955     -15.847
  O      -58.759     189.506     -16.656
  H      -59.753     190.490     -23.747
  H      -61.259     189.009     -16.064
  H      -60.517     185.652     -24.493
  H      -59.990     188.463     -18.718
  H      -58.613     189.217     -22.065
  H      -61.372     189.788     -22.338
  H      -61.519     190.700     -20.084
  H      -58.906     192.180     -20.748
  H      -58.492     191.858     -18.296
  H      -61.379     182.881     -21.043
  H      -61.188     183.822     -19.579
  H      -59.828     192.974     -18.660
  P      -63.036     192.512     -21.267
  C      -63.632     193.957     -19.192
  O      -63.479     192.660     -19.735
  O      -63.458     191.018     -21.652
  O      -63.585     193.522     -22.219
  H      -64.333     191.011     -22.083
  H      -64.222     193.886     -18.275
  H      -64.153     194.619     -19.889
  H      -62.652     194.376     -18.950
  H      -60.081     193.602     -14.880
  H      -61.338     192.403     -15.065
  H      -60.695     193.218     -16.470

 3  4  5  6  7  8  9  10  11  12  22  25  29  30  31  32 0
 6-311+G(2d,p)
 ****
 33  36  37 0
 6-311+G(2d,p)
 ****
 1  2  13  14  15  16  17  18  19  20  21  23  24  26 0
 3-21G
 ****
 27  28  34  35  38  39  40  41  42  43  44  45  46  47  48 0
 3-21G
 ****


