%nproc=1
%NoSave
%Mem=1900MB
#P OB98/GEN NMR

erre ene a

0 1
  C      491.504     211.846    -111.164
  O      490.102     211.704    -111.269
  H      491.926     212.104    -112.139
  H      491.728     212.650    -110.460
  H      491.954     210.919    -110.800
  P      489.571     210.576    -112.281
  C      487.896     212.222    -113.364
  O      488.069     210.988    -112.687
  C      486.436     212.388    -113.787
  O      486.111     211.306    -114.704
  C      485.432     212.345    -112.625
  O      484.533     213.465    -112.691
  C      484.642     211.076    -112.858
  O      483.277     211.190    -112.465
  C      484.791     210.861    -114.360
  N      481.328     207.408    -115.825
  C      481.324     208.750    -115.886
  N      482.313     209.609    -115.570
  C      483.418     208.947    -115.181
  C      483.583     207.574    -115.087
  C      482.466     206.783    -115.410
  N      482.449     205.408    -115.295
  N      484.853     207.257    -114.640
  C      485.434     208.418    -114.427
  N      484.602     209.471    -114.722
  O      489.370     209.296    -111.330
  O      490.495     210.277    -113.412
  H      482.913     211.983    -112.907
  H      489.956     208.581    -111.638
  H      480.404     209.202    -116.228
  H      486.430     208.566    -114.019
  H      484.073     211.465    -114.933
  H      485.105     210.256    -112.289
  H      485.924     212.334    -111.643
  H      486.336     213.323    -114.353
  H      488.535     212.245    -114.255
  H      481.575     204.939    -115.431
  H      483.254     204.954    -114.882
  H      488.192     213.039    -112.700
  P      484.932     214.753    -111.813
  C      483.405     214.331    -109.758
  O      483.669     215.142    -110.896
  O      484.993     215.932    -112.910
  O      486.234     214.613    -111.098
  H      485.875     216.358    -112.883
  H      482.543     214.704    -109.246
  H      484.248     214.355    -109.100
  H      483.225     213.324    -110.072

 6  7  8  9  10  11  12  13  14  15  25  28  32  33  34  35 0
 6-311+G(2d,p)
 ****
 36  39  40 0
 6-311+G(2d,p)
 ****
 1  2  3  4  5  16  17  18  19  20  21  22  23  24 0
 3-21G
 ****
 26  27  29  30  31  37  38  41  42  43  44  45  46  47  48 0
 3-21G
 ****


