%nproc=1
%NoSave
%Mem=1900MB
#P OB98/GEN NMR

erre ene a

0 1
  C      -33.016     114.179     173.039
  O      -32.861     113.031     172.224
  P      -31.375     112.673     171.731
  C      -30.130     110.494     171.037
  O      -31.302     111.078     171.591
  C      -29.900     109.109     171.636
  O      -29.665     109.214     173.053
  C      -31.076     108.152     171.490
  O      -31.166     107.647     170.166
  C      -30.722     107.111     172.546
  O      -29.720     106.215     172.039
  C      -30.133     107.982     173.668
  N      -32.473     106.289     177.895
  C      -31.574     105.710     177.068
  N      -31.014     106.216     175.951
  C      -31.463     107.459     175.716
  C      -32.394     108.169     176.456
  C      -32.908     107.535     177.597
  N      -33.829     108.128     178.435
  N      -32.626     109.406     175.894
  C      -31.839     109.449     174.839
  N      -31.106     108.302     174.697
  O      -30.481     112.973     173.021
  O      -30.907     113.441     170.534
  H      -29.543     105.552     172.736
  H      -29.601     113.312     172.766
  H      -31.262     104.705     177.342
  H      -31.763     110.283     174.156
  H      -29.275     107.512     174.160
  H      -31.579     106.503     172.856
  H      -32.013     108.654     171.758
  H      -29.002     108.682     171.169
  H      -29.264     111.124     171.264
  H      -34.254     107.550     179.144
  H      -34.255     108.995     178.134
  H      -30.241     110.438     169.950
  P      -32.617     107.203     169.646
  C      -33.469     106.342     167.380
  O      -32.404     106.972     168.069
  O      -33.416     108.584     169.692
  O      -33.230     106.068     170.391
  H      -32.920     109.308     169.271
  H      -33.218     106.296     166.318
  H      -34.391     106.916     167.504
  H      -33.608     105.324     167.755
  H      -34.048     114.299     173.293
  H      -32.677     115.043     172.506
  H      -32.440     114.062     173.933

 3  4  5  6  7  8  9  10  11  12  22  25  29  30  31  32 0
 6-311+G(2d,p)
 ****
 33  36  37 0
 6-311+G(2d,p)
 ****
 1  2  13  14  15  16  17  18  19  20  21  23  24  26 0
 3-21G
 ****
 27  28  34  35  38  39  40  41  42  43  44  45  46  47  48 0
 3-21G
 ****


