%nproc=1
%NoSave
%Mem=1900MB
#P OB98/GEN NMR

erre ene a

0 1
  C      175.938     -62.164      64.149
  O      176.480     -61.429      63.047
  P      175.920     -59.944      62.802
  C      178.129     -59.358      61.533
  O      176.711     -59.381      61.524
  C      178.689     -59.812      60.181
  O      178.534     -61.258      60.046
  C      178.023     -59.157      58.965
  O      179.055     -58.948      57.991
  C      177.056     -60.224      58.487
  O      176.703     -60.050      57.123
  C      177.862     -61.492      58.792
  N      177.031     -62.691      58.842
  C      177.374     -63.733      57.987
  O      178.277     -63.645      57.157
  N      176.609     -64.862      58.084
  C      175.511     -65.020      58.879
  O      174.861     -66.057      58.927
  C      175.130     -63.845      59.678
  C      175.895     -62.753      59.621
  O      176.551     -59.159      64.041
  O      174.431     -59.893      62.708
  H      177.447     -59.458      64.273
  H      177.472     -60.281      56.562
  H      176.860     -65.641      57.494
  H      174.231     -63.912      60.278
  H      175.631     -61.865      60.179
  H      178.640     -61.642      58.030
  H      176.143     -60.195      59.089
  H      177.542     -58.206      59.207
  H      179.766     -59.603      60.174
  H      178.505     -60.025      62.313
  H      178.470     -58.348      61.784
  P      179.163     -57.498      57.296
  C      181.709     -57.859      56.805
  O      180.426     -57.539      56.314
  O      179.701     -56.635      58.536
  O      177.885     -56.970      56.734
  H      180.439     -57.058      59.004
  H      182.367     -58.066      55.960
  H      181.677     -58.746      57.445
  H      182.113     -57.014      57.369
  H      176.397     -63.129      64.194
  H      174.882     -62.277      64.017
  H      176.129     -61.635      65.059

 3  4  5  6  7  8  9  10  11  12  13  24  28  29  30  31  32 0
 6-311+G(2d,p)
 ****
 33  34 0
 6-311+G(2d,p)
 ****
 1  2  14  15  16  17  18  19  20  21  22  23  25  26  27 0
 3-21G
 ****
 35  36  37  38  39  40  41  42  43  44  45 0
 3-21G
 ****


