%nproc=1
%NoSave
%Mem=1900MB
#P OB98/GEN NMR

erre ene a

0 1
  C        0.403       5.441      -4.423
  O       -0.817       5.300      -3.730
  H        1.167       4.857      -3.904
  H        0.705       6.492      -4.425
  H        0.323       5.080      -5.451
  P       -2.178       5.670      -4.485
  C       -3.463       4.790      -6.542
  O       -2.216       4.842      -5.860
  C       -3.281       4.738      -8.059
  O       -2.606       5.928      -8.522
  C       -2.411       3.561      -8.500
  O       -3.090       2.327      -8.647
  C       -1.876       4.054      -9.841
  O       -2.805       3.770     -10.899
  C       -1.756       5.564      -9.623
  N        2.693       7.174     -11.548
  C        1.553       6.771     -12.214
  N        1.630       6.738     -13.563
  N        0.451       6.417     -11.608
  C        0.553       6.407     -10.258
  C        1.634       6.772      -9.486
  C        2.832       7.216     -10.168
  O        3.871       7.576      -9.625
  N        1.364       6.636      -8.146
  C        0.152       6.120      -8.111
  N       -0.391       5.987      -9.367
  O       -1.931       7.171      -4.993
  O       -3.419       5.582      -3.649
  H       -3.662       4.174     -10.672
  H       -2.782       7.634      -5.087
  H        3.504       7.463     -12.066
  H       -0.385       5.850      -7.208
  H       -2.108       6.125     -10.497
  H       -0.935       3.563     -10.106
  H        2.490       6.889     -14.067
  H       -1.564       3.436      -7.818
  H        0.922       6.203     -14.068
  H       -4.266       4.716      -8.540
  H       -4.011       5.691      -6.262
  H       -4.048       3.933      -6.197
  P       -2.306       0.950      -8.425
  C       -1.152      -0.068      -6.327
  O       -1.489       1.092      -7.054
  O       -1.172       1.001      -9.553
  O       -3.145      -0.276      -8.537
  H       -1.458       0.503     -10.341
  H       -0.612       0.208      -5.445
  H       -0.543      -0.705      -6.934
  H       -2.045      -0.588      -6.050

 6  7  8  9  10  11  12  13  14  15  26  29  33  34 0
 6-311+G(2d,p)
 ****
 36  38  39  40  41 0
 6-311+G(2d,p)
 ****
 1  2  3  4  5  16  17  18  19  20  21  22  23  24  25 0
 3-21G
 ****
 27  28  30  31  32  35  37  42  43  44  45  46  47 0
 3-21G
 ****
 48  49 0
 3-21G
 ****


