%nproc=1
%NoSave
%Mem=1900MB
#P OB98/GEN NMR

erre ene a

0 1
  C     -420.607     361.049    -239.218
  O     -420.013     362.107    -238.484
  P     -420.668     362.484    -237.058
  C     -418.366     362.404    -235.788
  O     -419.677     361.886    -235.950
  C     -417.380     361.264    -235.485
  O     -417.397     360.305    -236.553
  C     -415.924     361.702    -235.351
  O     -415.675     362.321    -234.105
  C     -415.198     360.387    -235.573
  O     -415.206     359.609    -234.358
  C     -416.075     359.718    -236.645
  N     -415.526     359.819    -237.991
  C     -414.417     359.038    -238.279
  O     -413.899     358.289    -237.463
  N     -413.901     359.170    -239.547
  C     -414.348     360.028    -240.510
  O     -413.822     360.147    -241.613
  C     -415.508     360.861    -240.148
  C     -416.038     360.718    -238.920
  O     -421.927     361.503    -237.050
  O     -420.985     363.935    -236.928
  H     -421.774     360.698    -237.591
  H     -414.669     358.807    -234.546
  H     -413.111     358.591    -239.786
  H     -415.882     361.562    -240.868
  H     -416.882     361.325    -238.628
  H     -416.213     358.642    -236.420
  H     -414.153     360.522    -235.868
  H     -415.669     362.410    -236.159
  H     -417.710     360.757    -234.568
  H     -418.370     363.111    -234.954
  H     -418.066     362.928    -236.707
  P     -415.493     363.920    -234.102
  C     -417.472     364.040    -232.392
  O     -416.892     364.528    -233.590
  O     -415.484     364.225    -235.676
  O     -414.272     364.389    -233.381
  H     -416.160     363.710    -236.163
  H     -418.184     364.781    -232.024
  H     -416.732     363.851    -231.626
  H     -418.022     363.099    -232.615
  H     -420.075     360.909    -240.136
  H     -421.627     361.291    -239.431
  H     -420.567     360.148    -238.641

 3  4  5  6  7  8  9  10  11  12  13  24  28  29  30  31  32 0
 6-311+G(2d,p)
 ****
 33  34 0
 6-311+G(2d,p)
 ****
 1  2  14  15  16  17  18  19  20  21  22  23  25  26  27 0
 3-21G
 ****
 35  36  37  38  39  40  41  42  43  44  45 0
 3-21G
 ****


