%nproc=1
%NoSave
%Mem=1900MB
#P OB98/GEN NMR

erre ene a

0 1
  C     -338.317     293.224    1075.519
  O     -339.342     292.263    1075.712
  H     -338.021     293.620    1076.495
  H     -338.680     294.049    1074.900
  H     -337.444     292.762    1075.052
  P     -340.002     291.573    1074.426
  C     -337.834     290.599    1073.427
  O     -339.073     290.314    1074.055
  C     -337.185     289.295    1072.926
  O     -336.643     288.605    1074.074
  C     -338.200     288.359    1072.234
  O     -337.783     287.948    1070.937
  C     -338.444     287.276    1073.276
  O     -338.850     286.030    1072.750
  C     -337.123     287.245    1074.056
  N     -337.255     286.723    1075.413
  C     -337.321     285.332    1075.571
  O     -337.259     284.521    1074.657
  N     -337.456     284.884    1076.873
  C     -337.543     285.672    1077.978
  O     -337.657     285.214    1079.111
  C     -337.491     287.121    1077.752
  C     -337.354     287.579    1076.497
  O     -340.299     292.489    1073.284
  O     -341.331     290.883    1074.998
  H     -338.054     285.566    1072.420
  H     -342.103     291.431    1074.764
  H     -337.492     283.888    1076.988
  H     -337.565     287.775    1078.607
  H     -337.301     288.644    1076.299
  H     -336.384     286.625    1073.533
  H     -339.247     287.619    1073.948
  H     -339.148     288.889    1072.039
  H     -336.350     289.546    1072.261
  H     -337.187     291.079    1074.155
  H     -337.988     291.276    1072.579
  P     -338.651     288.116    1069.603
  C     -337.146     289.958    1068.494
  O     -337.686     288.636    1068.438
  O     -339.965     288.822    1069.768
  O     -338.971     286.585    1069.177
  H     -339.848     286.596    1068.752
  H     -336.529     290.128    1067.637
  H     -336.560     290.067    1069.383
  H     -337.945     290.670    1068.505

 6  7  8  9  10  11  12  13  14  15  16  26  31  32  33  34  35 0
 6-311+G(2d,p)
 ****
 36  37 0
 6-311+G(2d,p)
 ****
 1  2  3  4  5  17  18  19  20  21  22  23  24  25 0
 3-21G
 ****
 27  28  29  30  38  39  40  41  42  43  44  45 0
 3-21G
 ****


