%nproc=1
%NoSave
%Mem=1900MB
#P OB98/GEN NMR

erre ene a

0 1
  C       98.268    -191.743    -105.328
  O       98.745    -190.863    -106.348
  P       98.764    -189.283    -106.038
  C       96.187    -189.451    -105.806
  O       97.394    -188.888    -105.290
  C       94.970    -188.628    -105.366
  O       94.985    -188.490    -103.924
  C       94.935    -187.191    -105.921
  O       94.302    -186.966    -107.182
  C       94.073    -186.489    -104.870
  O       92.673    -186.711    -105.159
  C       94.445    -187.191    -103.560
  N       95.605    -182.611    -101.601
  C       94.562    -183.045    -102.349
  N       94.324    -184.282    -102.828
  C       95.298    -185.122    -102.458
  C       96.434    -184.837    -101.707
  C       96.572    -183.498    -101.265
  N       97.640    -183.068    -100.520
  N       97.213    -185.962    -101.543
  C       96.575    -186.912    -102.207
  N       95.405    -186.460    -102.772
  O       99.143    -188.406    -107.182
  O       99.836    -189.182    -104.852
  H       92.547    -187.674    -105.187
  H      100.360    -188.359    -104.972
  H       93.810    -182.288    -102.594
  H       96.925    -187.935    -102.309
  H       93.573    -187.371    -102.926
  H       94.227    -185.409    -104.862
  H       95.936    -186.752    -105.928
  H       94.050    -189.152    -105.650
  H       96.083    -190.482    -105.443
  H       97.684    -182.089    -100.285
  H       98.390    -183.705    -100.302
  H       96.297    -189.508    -106.894
  P       95.122    -187.062    -108.552
  C       96.231    -184.694    -108.281
  O       96.399    -186.105    -108.356
  O       94.324    -186.793    -109.788
  O       95.751    -188.526    -108.477
  H       96.439    -188.632    -107.795
  H       97.169    -184.249    -107.931
  H       95.437    -184.435    -107.571
  H       95.987    -184.298    -109.273
  H       98.315    -192.753    -105.678
  H       97.255    -191.495    -105.088
  H       98.877    -191.639    -104.454

 3  4  5  6  7  8  9  10  11  12  22  25  29  30  31  32 0
 6-311+G(2d,p)
 ****
 33  36  37 0
 6-311+G(2d,p)
 ****
 1  2  13  14  15  16  17  18  19  20  21  23  24  26 0
 3-21G
 ****
 27  28  34  35  38  39  40  41  42  43  44  45  46  47  48 0
 3-21G
 ****


