%nproc=1
%NoSave
%Mem=1900MB
#P OB98/GEN NMR

erre ene a

0 1
  C        6.161     -79.564      95.459
  O        7.104     -80.335      94.702
  P        7.116     -80.390      93.097
  C        4.964     -81.813      92.882
  O        5.602     -80.574      92.594
  C        3.525     -81.818      92.359
  O        3.517     -81.806      90.912
  C        2.704     -83.045      92.726
  O        2.314     -83.048      94.086
  C        1.543     -82.932      91.739
  O        0.520     -82.058      92.234
  C        2.220     -82.303      90.506
  N        2.340     -83.228      89.391
  C        1.175     -83.487      88.663
  O        0.099     -83.010      89.020
  N        1.260     -84.295      87.557
  C        2.381     -84.878      87.268
  N        2.409     -85.653      86.150
  C        3.598     -84.739      88.089
  C        3.508     -83.905      89.124
  O        8.062     -81.398      92.533
  O        7.500     -78.910      92.626
  H        7.924     -78.947      91.748
  H        0.945     -81.195      92.407
  H        4.501     -85.275      87.837
  H        4.361     -83.733      89.772
  H        1.662     -81.418      90.180
  H        1.073     -83.901      91.544
  H        3.284     -83.948      92.501
  H        3.030     -80.905      92.718
  H        1.560     -85.718      85.604
  H        4.945     -81.948      93.970
  H        3.236     -86.131      85.824
  H        5.544     -82.629      92.441
  P        3.099     -84.047      95.065
  C        1.232     -85.830      95.324
  O        2.518     -85.520      94.826
  O        2.557     -83.653      96.520
  O        4.587     -83.940      94.994
  H        3.288     -83.691      97.163
  H        0.797     -86.618      94.704
  H        0.571     -84.960      95.308
  H        1.322     -86.199      96.349
  H        6.355     -79.689      96.504
  H        5.169     -79.898      95.238
  H        6.256     -78.530      95.200

 3  4  5  6  7  8  9  10  11  12  13  24  27  28  29  30  32 0
 6-311+G(2d,p)
 ****
 34  35 0
 6-311+G(2d,p)
 ****
 1  2  14  15  16  17  18  19  20  21  22  23  25  26 0
 3-21G
 ****
 31  33  36  37  38  39  40  41  42  43  44  45  46 0
 3-21G
 ****


