%nproc=1
%NoSave
%Mem=1900MB
#P OB98/GEN NMR

erre ene a

0 1
  C      117.445      70.663    -130.011
  O      117.611      69.747    -131.079
  P      117.735      68.187    -130.713
  C      120.201      67.346    -131.081
  O      119.250      67.971    -130.234
  C      120.747      68.357    -132.094
  O      121.189      69.547    -131.410
  C      121.957      67.869    -132.882
  O      121.585      66.969    -133.914
  C      122.540      69.190    -133.373
  O      121.817      69.658    -134.524
  C      122.279      70.117    -132.169
  N      123.459      70.318    -131.329
  C      124.542      70.954    -131.931
  O      124.532      71.335    -133.100
  N      125.652      71.119    -131.144
  C      125.802      70.666    -129.864
  O      126.834      70.804    -129.217
  C      124.636      69.975    -129.291
  C      123.539      69.835    -130.039
  O      117.671      67.539    -132.173
  O      116.680      67.723    -129.767
  H      118.000      68.152    -132.856
  H      121.918      68.971    -135.211
  H      126.440      71.599    -131.550
  H      124.724      69.594    -128.283
  H      122.675      69.318    -129.635
  H      121.930      71.098    -132.513
  H      123.594      69.107    -133.659
  H      122.671      67.380    -132.208
  H      119.931      68.636    -132.772
  H      119.720      66.520    -131.610
  H      121.013      66.945    -130.465
  P      122.695      65.891    -134.359
  C      124.024      66.076    -136.603
  O      123.684      66.653    -135.361
  O      121.831      64.932    -135.308
  O      123.351      65.197    -133.210
  H      121.231      65.420    -135.893
  H      124.389      66.864    -137.268
  H      123.160      65.593    -137.068
  H      124.822      65.339    -136.456
  H      117.377      71.657    -130.401
  H      118.283      70.596    -129.350
  H      116.549      70.428    -129.476

 3  4  5  6  7  8  9  10  11  12  13  24  28  29  30  31  32 0
 6-311+G(2d,p)
 ****
 33  34 0
 6-311+G(2d,p)
 ****
 1  2  14  15  16  17  18  19  20  21  22  23  25  26  27 0
 3-21G
 ****
 35  36  37  38  39  40  41  42  43  44  45 0
 3-21G
 ****


