%nproc=1
%NoSave
%Mem=1900MB
#P OB98/GEN NMR

erre ene a

0 1
  C      -53.672     196.168    -324.707
  O      -53.205     196.383    -323.383
  P      -53.733     195.484    -322.163
  C      -51.429     195.631    -321.024
  O      -52.427     194.770    -321.572
  C      -50.037     195.077    -321.332
  O      -49.841     195.106    -322.768
  C      -48.866     195.875    -320.751
  O      -48.544     195.560    -319.408
  C      -47.734     195.416    -321.664
  O      -47.276     194.110    -321.253
  C      -48.429     195.325    -323.023
  N      -45.026     198.583    -325.029
  C      -44.879     197.440    -324.307
  N      -45.838     196.641    -323.797
  C      -47.058     197.093    -324.126
  C      -47.368     198.233    -324.855
  C      -46.284     199.000    -325.319
  N      -46.437     200.143    -326.073
  N      -48.740     198.377    -324.970
  C      -49.237     197.340    -324.342
  N      -48.265     196.534    -323.816
  O      -54.871     194.580    -322.504
  O      -54.102     196.546    -321.024
  H      -46.903     194.213    -320.353
  H      -54.676     196.128    -320.349
  H      -43.849     197.142    -324.112
  H      -50.293     197.133    -324.231
  H      -48.076     194.481    -323.625
  H      -46.865     196.082    -321.636
  H      -49.013     196.956    -320.882
  H      -49.998     194.032    -321.004
  H      -51.574     195.671    -319.940
  H      -45.609     200.549    -326.468
  H      -47.361     200.358    -326.424
  H      -51.550     196.642    -321.426
  P      -48.946     196.635    -318.285
  C      -50.414     194.761    -317.195
  O      -50.311     196.100    -317.638
  O      -48.971     198.051    -318.759
  O      -47.861     196.364    -317.138
  H      -47.939     195.510    -316.687
  H      -51.353     194.648    -316.646
  H      -49.583     194.500    -316.525
  H      -50.423     194.085    -318.058
  H      -53.202     196.866    -325.369
  H      -54.733     196.306    -324.738
  H      -53.433     195.171    -325.012

 3  4  5  6  7  8  9  10  11  12  22  25  29  30  31  32 0
 6-311+G(2d,p)
 ****
 33  36  37 0
 6-311+G(2d,p)
 ****
 1  2  13  14  15  16  17  18  19  20  21  23  24  26 0
 3-21G
 ****
 27  28  34  35  38  39  40  41  42  43  44  45  46  47  48 0
 3-21G
 ****


