%nproc=1
%NoSave
%Mem=1900MB
#P OB98/GEN NMR

erre ene a

0 1
  C       86.430     -16.731    -241.312
  O       87.458     -17.159    -242.192
  P       87.976     -16.216    -243.381
  C       86.314     -17.372    -244.966
  O       86.750     -16.139    -244.411
  C       85.082     -17.152    -245.839
  O       84.000     -16.695    -244.990
  C       85.214     -16.088    -246.926
  O       85.810     -16.546    -248.131
  C       83.749     -15.760    -247.182
  O       83.163     -16.778    -248.014
  C       83.154     -15.816    -245.775
  N       80.600     -11.387    -245.538
  C       80.387     -12.518    -246.250
  N       81.125     -13.649    -246.273
  C       82.157     -13.557    -245.414
  C       82.496     -12.476    -244.620
  C       81.662     -11.346    -244.701
  N       81.868     -10.205    -243.958
  N       83.635     -12.747    -243.887
  C       83.964     -13.977    -244.228
  N       83.095     -14.510    -245.140
  O       89.287     -16.616    -243.962
  O       88.001     -14.750    -242.740
  H       83.601     -16.720    -248.884
  H       88.546     -14.156    -243.292
  H       79.512     -12.513    -246.894
  H       84.817     -14.516    -243.844
  H       82.143     -16.241    -245.761
  H       83.610     -14.806    -247.701
  H       85.722     -15.191    -246.549
  H       84.787     -18.116    -246.270
  H       86.057     -18.048    -244.141
  H       81.148      -9.499    -243.985
  H       82.559     -10.234    -243.222
  H       87.127     -17.825    -245.540
  P       86.766     -15.516    -248.915
  C       84.602     -14.285    -249.721
  O       85.885     -14.196    -249.141
  O       87.409     -16.076    -250.135
  O       87.810     -15.073    -247.785
  H       87.437     -14.549    -247.058
  H       84.108     -13.314    -249.638
  H       83.990     -15.031    -249.205
  H       84.685     -14.548    -250.779
  H       86.232     -17.500    -240.595
  H       85.542     -16.529    -241.873
  H       86.742     -15.842    -240.805

 3  4  5  6  7  8  9  10  11  12  22  25  29  30  31  32 0
 6-311+G(2d,p)
 ****
 33  36  37 0
 6-311+G(2d,p)
 ****
 1  2  13  14  15  16  17  18  19  20  21  23  24  26 0
 3-21G
 ****
 27  28  34  35  38  39  40  41  42  43  44  45  46  47  48 0
 3-21G
 ****


