%nproc=1
%NoSave
%Mem=1900MB
#P OB98/GEN NMR

erre ene a

0 1
  C      169.423     145.846    -355.189
  O      169.662     145.207    -356.450
  P      170.098     146.011    -357.768
  C      168.275     145.399    -359.489
  O      169.619     145.199    -359.066
  C      167.611     144.084    -359.902
  O      167.143     143.367    -358.740
  C      166.392     144.237    -360.801
  O      166.772     144.542    -362.132
  C      165.722     142.875    -360.627
  O      166.329     141.887    -361.476
  C      166.011     142.569    -359.141
  N      164.855     142.814    -358.287
  C      163.675     142.150    -358.626
  O      163.627     141.443    -359.637
  N      162.570     142.318    -357.830
  C      162.621     143.137    -356.825
  N      161.500     143.259    -356.064
  C      163.820     143.926    -356.484
  C      164.889     143.717    -357.249
  O      171.541     146.401    -357.792
  O      169.168     147.315    -357.783
  H      165.760     141.098    -361.430
  H      169.655     148.046    -358.208
  H      163.808     144.620    -355.659
  H      165.811     144.247    -357.064
  H      166.322     141.527    -359.021
  H      164.656     142.896    -360.866
  H      165.732     145.018    -360.401
  H      168.373     143.463    -360.393
  H      160.695     142.698    -356.318
  H      168.284     146.085    -360.345
  H      161.432     143.866    -355.259
  H      167.715     145.869    -358.672
  P      166.148     145.823    -362.862
  C      165.308     144.611    -364.966
  O      166.217     145.563    -364.441
  O      166.671     147.145    -362.413
  O      164.575     145.701    -362.557
  H      164.195     146.600    -362.503
  H      165.166     144.812    -366.029
  H      164.337     144.675    -364.460
  H      165.720     143.606    -364.838
  H      169.146     145.110    -354.463
  H      168.632     146.559    -355.295
  H      170.313     146.346    -354.868

 3  4  5  6  7  8  9  10  11  12  13  23  27  28  29  30  32 0
 6-311+G(2d,p)
 ****
 34  35 0
 6-311+G(2d,p)
 ****
 1  2  14  15  16  17  18  19  20  21  22  24  25  26 0
 3-21G
 ****
 31  33  36  37  38  39  40  41  42  43  44  45  46 0
 3-21G
 ****


