%nproc=1
%NoSave
%Mem=1900MB
#P OB98/GEN NMR

erre ene a

0 1
  C       91.710     136.356      11.581
  O       92.849     137.172      11.880
  P       92.811     138.311      13.010
  C       91.935     140.733      13.038
  O       91.697     139.394      12.612
  C       90.937     141.714      12.415
  O       91.182     141.864      11.003
  C       89.475     141.297      12.546
  O       88.989     141.582      13.844
  C       88.832     142.110      11.425
  O       88.598     143.462      11.855
  C       89.918     142.072      10.343
  N       90.027     141.019       5.339
  C       90.342     142.132       6.036
  N       90.282     142.338       7.369
  C       89.866     141.226       7.999
  C       89.506     140.017       7.423
  C       89.597     139.933       6.024
  N       89.261     138.802       5.317
  N       89.107     139.117       8.388
  C       89.241     139.765       9.529
  N       89.697     141.041       9.346
  O       94.146     138.898      13.335
  O       92.183     137.588      14.294
  H       88.193     143.938      11.107
  H       92.511     138.018      15.106
  H       90.687     142.975       5.441
  H       89.026     139.353      10.506
  H       89.995     143.028       9.813
  H       87.871     141.699      11.102
  H       89.369     140.229      12.327
  H       91.096     142.695      12.878
  H       92.954     141.013      12.746
  H       89.323     138.832       4.312
  H       88.895     138.003       5.815
  H       91.859     140.770      14.131
  P       88.240     140.446      14.687
  C       86.293     138.824      14.282
  O       86.963     139.987      13.833
  O       87.962     140.779      16.116
  O       89.214     139.180      14.568
  H       89.124     138.626      15.366
  H       86.837     137.938      13.946
  H       85.289     138.810      13.852
  H       86.213     138.815      15.373
  H       91.959     135.668      10.800
  H       90.899     136.978      11.264
  H       91.421     135.812      12.456

 3  4  5  6  7  8  9  10  11  12  22  25  29  30  31  32 0
 6-311+G(2d,p)
 ****
 33  36  37 0
 6-311+G(2d,p)
 ****
 1  2  13  14  15  16  17  18  19  20  21  23  24  26 0
 3-21G
 ****
 27  28  34  35  38  39  40  41  42  43  44  45  46  47  48 0
 3-21G
 ****


