%nproc=1
%NoSave
%Mem=1900MB
#P OB98/GEN NMR

erre ene a

0 1
  C      -12.867      53.242     -44.550
  O      -14.038      53.396     -43.773
  P      -15.408      53.893     -44.433
  C      -14.590      56.321     -44.342
  O      -15.131      55.294     -45.161
  C      -14.492      57.646     -45.098
  O      -13.646      57.474     -46.264
  C      -15.845      58.197     -45.574
  O      -15.799      59.620     -45.426
  C      -15.872      57.813     -47.041
  O      -16.760      58.626     -47.799
  C      -14.387      57.958     -47.402
  N      -14.035      57.236     -48.614
  C      -13.500      57.984     -49.664
  O      -13.465      59.213     -49.593
  N      -13.033      57.319     -50.771
  C      -13.258      56.046     -50.895
  N      -12.719      55.414     -51.972
  C      -14.045      55.272     -49.913
  C      -14.361      55.909     -48.789
  O      -16.589      53.896     -43.515
  O      -15.642      52.890     -45.660
  H      -16.538      52.503     -45.588
  H      -16.392      59.533     -47.848
  H      -14.314      54.246     -50.119
  H      -14.914      55.417     -47.995
  H      -14.124      59.017     -47.532
  H      -16.191      56.771     -47.146
  H      -16.690      57.799     -45.004
  H      -14.001      58.375     -44.443
  H      -12.152      55.968     -52.602
  H      -13.589      56.016     -44.029
  H      -12.568      54.406     -51.989
  H      -15.201      56.435     -43.437
  P      -17.003      60.344     -44.645
  C      -18.534      60.689     -46.713
  O      -18.355      60.064     -45.460
  O      -16.723      61.890     -44.984
  O      -17.050      60.152     -43.164
  H      -17.113      62.445     -44.283
  H      -19.530      60.442     -47.090
  H      -17.792      60.323     -47.430
  H      -18.455      61.775     -46.619
  H      -12.067      52.903     -43.926
  H      -12.604      54.182     -44.989
  H      -13.044      52.524     -45.324

 3  4  5  6  7  8  9  10  11  12  13  24  27  28  29  30  32 0
 6-311+G(2d,p)
 ****
 34  35 0
 6-311+G(2d,p)
 ****
 1  2  14  15  16  17  18  19  20  21  22  23  25  26 0
 3-21G
 ****
 31  33  36  37  38  39  40  41  42  43  44  45  46 0
 3-21G
 ****


