%nproc=1
%NoSave
%Mem=1900MB
#P OB98/GEN NMR

erre ene a

0 1
  C      760.652    -117.617     278.532
  O      760.485    -116.305     279.033
  H      761.665    -117.951     278.767
  H      760.519    -117.624     277.445
  H      759.941    -118.300     278.998
  P      759.044    -115.631     278.811
  C      759.181    -114.900     281.306
  O      758.879    -114.528     279.966
  C      760.018    -113.807     281.965
  O      759.434    -112.514     281.712
  C      760.092    -113.924     283.487
  O      761.022    -114.910     283.907
  C      760.507    -112.502     283.864
  O      761.919    -112.317     283.752
  C      759.769    -111.656     282.821
  N      757.760    -109.349     286.926
  C      759.017    -109.779     286.650
  N      759.483    -110.376     285.519
  C      758.490    -110.490     284.609
  C      757.163    -110.104     284.752
  C      756.807    -109.510     285.977
  N      755.526    -109.100     286.268
  N      756.437    -110.425     283.619
  C      757.315    -110.983     282.815
  N      758.562    -111.044     283.369
  O      758.029    -116.797     279.247
  O      758.768    -115.152     277.426
  H      762.326    -112.975     284.351
  H      757.685    -117.246     278.456
  H      759.761    -109.616     287.430
  H      757.084    -111.385     281.821
  H      760.394    -110.834     282.432
  H      760.225    -112.289     284.893
  H      759.095    -114.132     283.896
  H      761.028    -113.822     281.524
  H      759.755    -115.842     281.299
  H      758.244    -115.055     281.849
  H      755.326    -108.746     287.197
  H      754.784    -109.312     285.620
  P      761.031    -115.309     285.453
  C      762.387    -117.409     284.720
  O      762.219    -116.374     285.665
  O      759.693    -116.193     285.643
  O      761.055    -114.148     286.404
  H      759.300    -116.010     286.509
  H      763.214    -118.024     285.008
  H      762.576    -116.985     283.756
  H      761.498    -118.003     284.680

 6  7  8  9  10  11  12  13  14  15  25  28  32  33  34  35 0
 6-311+G(2d,p)
 ****
 36  37  40 0
 6-311+G(2d,p)
 ****
 1  2  3  4  5  16  17  18  19  20  21  22  23  24 0
 3-21G
 ****
 26  27  29  30  31  38  39 41  42  43  44  45  46  47  48 0
 3-21G
 ****


