%nproc=1
%NoSave
%Mem=1900MB
#P OB98/GEN NMR

erre ene a

0 1
  C      -95.901     328.829     -70.799
  O      -96.111     327.870     -71.820
  P      -95.719     328.299     -73.324
  C      -96.545     330.224     -74.864
  O      -96.859     329.305     -73.830
  C      -97.588     331.342     -74.918
  O      -97.542     332.115     -73.701
  C      -97.385     332.341     -76.044
  O      -97.797     331.807     -77.289
  C      -98.244     333.502     -75.538
  O      -99.629     333.240     -75.800
  C      -97.967     333.463     -74.021
  N      -97.020     338.284     -72.583
  C      -98.151     337.665     -72.965
  N      -98.325     336.386     -73.360
  C      -97.158     335.721     -73.321
  C      -95.913     336.222     -72.971
  C      -95.863     337.571     -72.591
  N      -94.697     338.202     -72.200
  N      -94.947     335.245     -73.085
  C      -95.594     334.175     -73.476
  N      -96.937     334.400     -73.624
  O      -96.004     326.970     -74.159
  O      -94.314     328.784     -73.489
  H     -100.115     334.082     -75.686
  H      -95.369     326.877     -74.896
  H      -99.054     338.284     -72.952
  H      -95.140     333.208     -73.657
  H      -98.862     333.683     -73.434
  H      -97.986     334.456     -76.013
  H      -96.336     332.648     -76.105
  H      -98.582     330.875     -74.995
  H      -96.538     329.699     -75.831
  H      -94.722     339.203     -72.082
  H      -93.823     337.707     -72.345
  H      -95.542     330.630     -74.689
  P      -97.364     332.600     -78.613
  C      -97.991     334.912     -79.550
  O      -98.309     333.895     -78.613
  O      -98.003     331.691     -79.764
  O      -95.897     332.858     -78.734
  H      -98.940     331.478     -79.578
  H      -98.741     335.699     -79.478
  H      -97.994     334.500     -80.563
  H      -97.006     335.329     -79.322
  H      -96.200     328.419     -69.857
  H      -96.480     329.704     -71.007
  H      -94.864     329.089     -70.761

 3  4  5  6  7  8  9  10  11  12  22  25  29  30  31  32 0
 6-311+G(2d,p)
 ****
 33  36  37 0
 6-311+G(2d,p)
 ****
 1  2  13  14  15  16  17  18  19  20  21  23  24  26 0
 3-21G
 ****
 27  28  34  35  38  39  40  41  42  43  44  45  46  47  48 0
 3-21G
 ****


