%nproc=1
%NoSave
%Mem=1900MB
#P OB98/GEN NMR

erre ene a

0 1
  C     1147.199    -895.680     -68.775
  O     1148.095    -894.960     -69.602
  H     1146.742    -896.490     -69.365
  H     1146.412    -895.030     -68.396
  H     1147.748    -896.130     -67.937
  P     1148.799    -893.650     -68.998
  C     1150.827    -895.010     -68.146
  O     1149.708    -894.210     -67.800
  C     1151.455    -895.620     -66.888
  O     1151.963    -894.590     -66.018
  C     1150.482    -896.420     -66.018
  O     1150.152    -897.690     -66.565
  C     1151.309    -896.530     -64.749
  O     1152.337    -897.530     -64.916
  C     1151.906    -895.100     -64.662
  N     1151.155    -894.220     -63.798
  C     1151.324    -894.390     -62.417
  O     1152.082    -895.240     -61.977
  N     1150.602    -893.590     -61.554
  C     1149.766    -892.720     -62.032
  N     1149.046    -891.990     -61.138
  C     1149.566    -892.490     -63.476
  C     1150.280    -893.270     -64.285
  O     1147.896    -892.520     -68.650
  O     1149.908    -893.270     -70.086
  H     1152.796    -897.620     -64.067
  H     1150.375    -892.460     -69.764
  H     1148.855    -891.770     -63.812
  H     1150.170    -893.180     -65.361
  H     1152.940    -895.160     -64.292
  H     1150.711    -896.830     -63.880
  H     1149.582    -895.850     -65.799
  H     1152.312    -896.240     -67.203
  H     1149.188    -892.200     -60.157
  H     1151.542    -894.390     -68.684
  H     1148.202    -891.510     -61.418
  H     1150.512    -895.830     -68.808
  P     1148.926    -898.500     -65.904
  C     1147.358    -898.390     -67.977
  O     1147.577    -898.010     -66.634
  O     1148.824    -897.840     -64.448
  O     1149.085    -900.000     -65.860
  H     1149.324    -898.370     -63.797
  H     1146.425    -897.988     -68.314
  H     1147.332    -899.457     -68.046
  H     1148.151    -898.012     -68.588

 6  7  8  9  10  11  12  13  14  15  16  26  30  31  32  33  35 0
 6-311+G(2d,p)
 ****
 37  38 0
 6-311+G(2d,p)
 ****
 1  2  3  4  5  17  18  19  20  21  22  23  24  25 0
 3-21G
 ****
 27  28  29  34  36  39  40  41  42  43  44  45  46 0
 3-21G
 ****


