%nproc=1
%NoSave
%Mem=1900MB
#P OB98/GEN NMR

erre ene a

0 1
  C      631.343      50.793     411.793
  O      631.370      52.183     412.029
  H      631.678      50.608     410.764
  H      630.329      50.409     411.903
  H      632.019      50.269     412.477
  P      631.086      52.717     413.513
  C      628.549      52.873     413.089
  O      629.585      52.300     413.883
  C      627.298      53.098     413.950
  O      627.001      51.902     414.696
  C      627.459      54.203     414.984
  O      627.382      55.484     414.391
  C      626.320      53.867     415.932
  O      625.071      54.368     415.445
  C      626.335      52.317     415.909
  N      626.982      51.757     417.095
  C      626.154      51.095     417.996
  O      624.943      50.954     417.833
  N      626.763      50.634     419.132
  C      628.046      50.898     419.511
  O      628.472      50.689     420.643
  C      628.889      51.543     418.497
  C      628.321      51.948     417.351
  O      631.424      54.149     413.761
  O      631.960      51.741     414.437
  H      632.779      52.204     414.710
  H      624.837      53.808     414.681
  H      626.155      50.191     419.813
  H      629.935      51.709     418.727
  H      628.915      52.466     416.601
  H      625.306      51.930     415.858
  H      626.489      54.287     416.919
  H      628.409      54.084     415.512
  H      626.454      53.305     413.276
  H      628.306      52.183     412.273
  H      628.901      53.819     412.667
  P      628.704      56.378     414.222
  C      628.597      58.411     415.788
  O      629.030      57.065     415.637
  O      628.695      57.313     413.060
  O      629.881      55.299     414.079
  H      630.425      55.522     413.303
  H      628.865      58.765     416.762
  H      627.535      58.459     415.671
  H      629.066      59.022     415.045

 6  7  8  9  10  11  12  13  14  15  16  27  31  32  33  34  35 0
 6-311+G(2d,p)
 ****
 36  37 0
 6-311+G(2d,p)
 ****
 1  2  3  4  5  17  18  19  20  21  22  23  24  25 0
 3-21G
 ****
 26  28  29  30  38  39  40  41  42  43  44  45 0
 3-21G
 ****


