%nproc=1
%NoSave
%Mem=1900MB
#P OB98/GEN NMR

erre ene a

0 1
  C      -77.867     -57.754     747.120
  O      -78.344     -59.064     747.322
  P      -79.691     -59.553     746.589
  C      -78.672     -61.905     746.436
  O      -79.809     -61.142     746.798
  C      -78.793     -63.330     746.985
  O      -80.079     -63.894     746.635
  C      -77.755     -64.300     746.424
  O      -76.492     -64.095     747.034
  C      -78.409     -65.643     746.743
  O      -78.157     -66.013     748.113
  C      -79.899     -65.330     746.536
  N      -81.475     -69.422     743.937
  C      -80.877     -69.294     745.141
  N      -80.455     -68.168     745.750
  C      -80.670     -67.095     744.968
  C      -81.224     -67.080     743.694
  C      -81.664     -68.313     743.184
  N      -82.315     -68.445     741.973
  N      -81.239     -65.792     743.197
  C      -80.697     -65.051     744.145
  N      -80.396     -65.783     745.255
  O      -79.855     -59.080     745.185
  O      -80.858     -58.974     747.529
  H      -77.193     -65.983     748.247
  H      -81.412     -58.364     747.009
  H      -80.745     -70.220     745.704
  H      -80.528     -63.984     744.086
  H      -80.525     -65.784     747.319
  H      -78.032     -66.450     746.114
  H      -77.686     -64.182     745.334
  H      -78.725     -63.274     748.082
  H      -77.786     -61.428     746.848
  H      -82.716     -69.356     741.777
  H      -82.731     -67.621     741.563
  H      -78.590     -61.933     745.338
  P      -75.169     -64.059     746.129
  C      -74.606     -61.792     747.198
  O      -74.132     -63.084     746.865
  O      -75.389     -63.783     744.673
  O      -74.532     -65.514     746.360
  H      -74.061     -65.783     745.542
  H      -74.608     -61.165     746.299
  H      -73.936     -61.353     747.932
  H      -75.622     -61.850     747.615
  H      -76.969     -57.611     747.683
  H      -78.606     -57.051     747.443
  H      -77.664     -57.605     746.080

 3  4  5  6  7  8  9  10  11  12  22  25  29  30  31  32 0
 6-311+G(2d,p)
 ****
 33  36  37 0
 6-311+G(2d,p)
 ****
 1  2  13  14  15  16  17  18  19  20  21  23  24  26 0
 3-21G
 ****
 27  28  34  35  38  39  40  41  42  43  44  45  46  47  48 0
 3-21G
 ****


