%nproc=1
%NoSave
%Mem=1900MB
#P OB98/GEN NMR

erre ene a

0 1
  C      607.863     113.751     525.586
  O      606.957     112.833     526.164
  H      607.584     114.762     525.898
  H      607.819     113.697     524.492
  H      608.883     113.551     525.929
  P      607.126     111.273     525.823
  C      605.190     111.347     524.111
  O      606.573     111.081     524.332
  C      604.429     110.042     523.889
  O      603.049     110.312     523.579
  C      604.966     109.190     522.739
  O      606.091     108.432     523.159
  C      603.754     108.316     522.451
  O      603.653     107.283     523.452
  C      602.594     109.317     522.611
  N      598.865     110.061     519.247
  C      598.948     109.174     520.304
  N      597.892     108.340     520.465
  N      599.963     109.095     521.112
  C      600.978     109.939     520.792
  C      601.026     110.851     519.759
  C      599.859     110.977     518.911
  O      599.738     111.768     517.976
  N      602.251     111.458     519.687
  C      602.927     110.959     520.700
  N      602.202     110.019     521.399
  O      606.538     110.314     526.816
  O      608.702     111.076     525.658
  H      602.769     106.881     523.364
  H      609.119     110.812     526.501
  H      598.062     110.076     518.654
  H      603.932     111.237     520.982
  H      601.699     108.852     523.019
  H      603.811     107.818     521.480
  H      597.147     108.255     519.792
  H      605.189     109.791     521.857
  H      597.959     107.643     521.200
  H      604.446     109.480     524.837
  H      605.118     111.987     523.226
  H      604.763     111.884     524.966
  P      607.367     108.214     522.205
  C      607.052     105.654     521.993
  O      607.025     106.910     521.337
  O      608.678     108.180     522.911
  O      607.242     109.378     521.114
  H      607.644     110.238     521.419
  H      606.805     104.882     521.295
  H      606.340     105.653     522.792
  H      608.031     105.479     522.388

 6  7  8  9  10  11  12  13  14  15  26  29  33  34 0
 6-311+G(2d,p)
 ****
 36  38  39  40  41 0
 6-311+G(2d,p)
 ****
 1  2  3  4  5  16  17  18  19  20  21  22  23  24  25 0
 3-21G
 ****
 27  28  30  31  32  35  37  42  43  44  45  46  47 0
 3-21G
 ****
 48  49 0
 3-21G
 ****


