%nproc=1
%NoSave
%Mem=1900MB
#P OB98/GEN NMR

erre ene a

0 1
  C     -160.952     -73.433      31.456
  O     -161.141     -72.034      31.503
  H     -159.881     -73.644      31.506
  H     -161.344     -73.828      30.516
  H     -161.448     -73.916      32.300
  P     -162.656     -71.508      31.533
  C     -162.270     -70.675      33.958
  O     -163.083     -71.441      33.081
  C     -163.131     -69.829      34.892
  O     -163.911     -68.889      34.095
  C     -164.121     -70.639      35.745
  O     -164.240     -69.993      37.019
  C     -165.434     -70.460      35.000
  O     -166.571     -70.694      35.828
  C     -165.280     -69.017      34.524
  N     -170.082     -67.884      33.544
  C     -169.441     -68.107      34.746
  N     -170.195     -68.016      35.864
  N     -168.171     -68.396      34.847
  C     -167.533     -68.422      33.652
  C     -168.051     -68.225      32.395
  C     -169.466     -67.932      32.296
  O     -170.095     -67.744      31.259
  N     -167.082     -68.365      31.433
  C     -165.982     -68.644      32.108
  N     -166.205     -68.690      33.456
  O     -163.473     -72.764      30.970
  O     -162.920     -70.270      30.743
  H     -166.615     -71.655      36.013
  H     -163.602     -72.678      30.007
  H     -171.066     -67.678      33.521
  H     -165.009     -68.825      31.673
  H     -165.456     -68.292      35.329
  H     -165.483     -71.150      34.149
  H     -171.166     -67.752      35.867
  H     -163.844     -71.688      35.885
  H     -169.733     -68.133      36.758
  H     -162.470     -69.229      35.528
  H     -161.631     -70.014      33.363
  H     -161.635     -71.350      34.542
  P     -163.989     -70.872      38.334
  C     -161.568     -69.946      38.557
  O     -162.409     -71.089      38.494
  O     -164.502     -72.325      37.895
  O     -164.703     -70.379      39.548
  H     -164.808     -72.819      38.677
  H     -160.550     -70.258      38.663
  H     -161.846     -69.344      39.397
  H     -161.674     -69.375      37.658

 6  7  8  9  10  11  12  13  14  15  26  29  33  34 0
 6-311+G(2d,p)
 ****
 36  38  39  40  41 0
 6-311+G(2d,p)
 ****
 1  2  3  4  5  16  17  18  19  20  21  22  23  24  25 0
 3-21G
 ****
 27  28  30  31  32  35  37  42  43  44  45  46  47 0
 3-21G
 ****
 48  49 0
 3-21G
 ****


