%nproc=1
%NoSave
%Mem=1900MB
#P OB98/GEN NMR

erre ene a

0 1
  C      -18.867     353.843    -164.159
  O      -17.607     354.166    -164.707
  H      -19.472     354.753    -164.114
  H      -18.740     353.455    -163.143
  H      -19.388     353.104    -164.771
  P      -16.644     352.979    -165.184
  C      -15.750     352.222    -167.483
  O      -16.191     353.312    -166.685
  C      -15.546     352.662    -168.938
  O      -16.812     353.138    -169.468
  C      -14.555     353.826    -169.043
  O      -13.874     353.844    -170.294
  C      -15.459     355.049    -168.952
  O      -14.875     356.218    -169.521
  C      -16.702     354.554    -169.688
  N      -19.331     358.919    -169.462
  C      -18.014     358.711    -169.816
  N      -17.302     359.812    -170.158
  N      -17.439     357.538    -169.813
  C      -18.244     356.538    -169.381
  C      -19.559     356.625    -168.978
  C      -20.197     357.925    -169.020
  O      -21.353     358.165    -168.694
  N      -20.046     355.396    -168.599
  C      -19.032     354.575    -168.763
  N      -17.922     355.215    -169.259
  O      -17.645     351.744    -165.389
  O      -15.531     352.634    -164.242
  H      -14.223     356.561    -168.883
  H      -17.157     350.901    -165.336
  H      -19.735     359.839    -169.507
  H      -19.049     353.515    -168.556
  H      -16.600     354.718    -170.770
  H      -15.645     355.258    -167.894
  H      -17.651     360.742    -169.982
  H      -13.819     353.827    -168.237
  H      -16.282     359.726    -170.117
  H      -15.247     351.803    -169.554
  H      -16.515     351.447    -167.419
  H      -14.829     351.803    -167.076
  P      -12.387     353.249    -170.367
  C      -10.991     352.323    -172.415
  O      -11.858     353.295    -171.874
  O      -12.583     351.694    -170.071
  O      -11.421     353.887    -169.411
  H      -12.143     351.447    -169.238
  H      -10.777     352.564    -173.435
  H      -11.458     351.362    -172.366
  H      -10.080     352.306    -171.854

 6  7  8  9  10  11  12  13  14  15  26  29  33  34 0
 6-311+G(2d,p)
 ****
 36  38  39  40  41 0
 6-311+G(2d,p)
 ****
 1  2  3  4  5  16  17  18  19  20  21  22  23  24  25 0
 3-21G
 ****
 27  28  30  31  32  35  37  42  43  44  45  46  47 0
 3-21G
 ****
 48  49 0
 3-21G
 ****


