%nproc=1
%NoSave
%Mem=1900MB
#P OB98/GEN NMR

erre ene a

0 1
  C     -379.835     109.580     399.274
  O     -380.072     110.746     398.511
  P     -380.969     111.925     399.115
  C     -383.166     111.862     397.779
  O     -382.505     111.485     398.983
  C     -384.521     112.495     398.086
  O     -385.368     111.553     398.787
  C     -384.443     113.719     398.992
  O     -383.997     114.853     398.264
  C     -385.874     113.803     399.498
  O     -386.716     114.455     398.531
  C     -386.257     112.323     399.629
  N     -388.762     111.991     404.062
  C     -389.027     112.669     402.922
  N     -388.289     112.739     401.792
  C     -387.157     112.028     401.931
  C     -386.729     111.316     403.040
  C     -387.601     111.292     404.143
  N     -387.368     110.558     405.287
  N     -385.494     110.752     402.806
  C     -385.176     111.118     401.582
  N     -386.178     111.837     400.990
  O     -380.660     113.295     398.605
  O     -380.708     111.837     400.692
  H     -386.996     113.777     397.887
  H     -380.319     112.675     401.002
  H     -389.963     113.216     402.913
  H     -384.249     110.880     401.080
  H     -387.272     112.129     399.272
  H     -385.960     114.373     400.431
  H     -383.773     113.517     399.834
  H     -385.008     112.748     397.136
  H     -383.308     110.962     397.167
  H     -388.126     110.496     405.948
  H     -386.681     109.806     405.246
  H     -382.536     112.569     397.226
  P     -382.887     115.814     398.898
  C     -384.700     117.569     399.349
  O     -383.647     116.806     399.904
  O     -381.969     116.475     397.921
  O     -382.075     114.855     399.895
  H     -381.144     115.140     399.938
  H     -384.290     118.410     398.784
  H     -385.316     117.964     400.165
  H     -385.328     116.957     398.695
  H     -379.220     108.906     398.714
  H     -380.767     109.107     399.501
  H     -379.338     109.844     400.184

 3  4  5  6  7  8  9  10  11  12  22  25  29  30  31  32 0
 6-311+G(2d,p)
 ****
 33  36  37 0
 6-311+G(2d,p)
 ****
 1  2  13  14  15  16  17  18  19  20  21  23  24  26 0
 3-21G
 ****
 27  28  34  35  38  39  40  41  42  43  44  45  46  47  48 0
 3-21G
 ****


