%nproc=1
%NoSave
%Mem=1900MB
#P OB98/GEN NMR

erre ene a

0 1
  C      -88.954      40.951     190.468
  O      -88.434      40.944     189.153
  H      -88.685      41.895     190.951
  H      -88.528      40.126     191.045
  H      -90.046      40.865     190.447
  P      -88.815      39.694     188.224
  C      -87.435      37.889     186.946
  O      -87.438      38.922     187.920
  C      -86.030      37.294     186.822
  O      -85.133      38.322     186.317
  C      -85.457      36.807     188.162
  O      -84.680      35.626     187.933
  C      -84.549      37.949     188.588
  O      -83.522      37.557     189.492
  C      -84.020      38.421     187.232
  N      -83.504      39.792     187.273
  C      -82.147      39.974     187.027
  O      -81.366      39.080     186.704
  N      -81.688      41.261     187.171
  C      -82.429      42.345     187.546
  O      -81.952      43.466     187.676
  C      -83.855      42.089     187.801
  C      -84.318      40.842     187.657
  O      -89.169      40.371     186.818
  O      -89.912      38.818     188.734
  H      -90.123      40.585     186.770
  H      -82.985      38.348     189.698
  H      -80.705      41.412     186.992
  H      -84.469      42.921     188.108
  H      -85.361      40.615     187.852
  H      -83.237      37.743     186.867
  H      -85.139      38.739     189.073
  H      -86.231      36.603     188.906
  H      -86.048      36.485     186.081
  H      -87.734      38.307     185.979
  H      -88.152      37.112     187.238
  P      -85.420      34.209     188.116
  C      -86.362      32.964     190.217
  O      -85.464      33.936     189.700
  O      -84.310      33.198     187.567
  O      -86.737      34.146     187.413
  H      -83.399      33.463     187.794
  H      -86.259      32.913     191.281
  H      -86.137      32.009     189.791
  H      -87.366      33.238     189.969

 6  7  8  9  10  11  12  13  14  15  16  27  31  32  33  34  35 0
 6-311+G(2d,p)
 ****
 36  37 0
 6-311+G(2d,p)
 ****
 1  2  3  4  5  17  18  19  20  21  22  23  24  25 0
 3-21G
 ****
 26  28  29  30  38  39  40  41  42  43  44  45 0
 3-21G
 ****


