%nproc=1
%NoSave
%Mem=1900MB
#P OB98/GEN NMR

erre ene a

0 1
  C     -162.772     152.601     145.590
  O     -161.769     151.968     146.365
  H     -163.271     151.845     144.977
  H     -162.334     153.351     144.924
  H     -163.512     153.073     146.241
  P     -160.789     152.890     147.235
  C     -159.447     150.745     147.781
  O     -159.404     152.090     147.314
  C     -158.165     150.015     147.392
  O     -158.097     149.851     145.962
  C     -156.903     150.769     147.784
  O     -156.655     150.654     149.170
  C     -155.882     150.108     146.879
  O     -155.451     148.848     147.412
  C     -156.702     149.908     145.583
  N     -156.470     150.963     144.600
  C     -155.416     150.746     143.706
  O     -154.747     149.716     143.768
  N     -155.134     151.719     142.779
  C     -155.849     152.800     142.734
  N     -155.519     153.725     141.794
  C     -156.978     153.059     143.649
  C     -157.227     152.111     144.549
  O     -161.305     153.363     148.560
  O     -160.450     154.108     146.252
  H     -154.897     148.441     146.717
  H     -161.099     154.828     146.364
  H     -157.551     153.973     143.572
  H     -158.041     152.222     145.259
  H     -156.459     148.945     145.118
  H     -154.999     150.732     146.748
  H     -156.986     151.822     147.490
  H     -158.186     149.016     147.846
  H     -154.729     153.508     141.193
  H     -160.313     150.267     147.310
  H     -156.056     154.558     141.609
  H     -159.583     150.718     148.868
  P     -155.817     151.780     149.947
  C     -155.462     149.987     151.768
  O     -154.847     150.976     150.946
  O     -156.631     152.862     150.574
  O     -154.804     152.316     148.825
  H     -155.270     152.887     148.164
  H     -154.720     149.524     152.385
  H     -155.925     149.246     151.149
  H     -156.203     150.448     152.387

 6  7  8  9  10  11  12  13  14  15  16  26  30  31  32  33  35 0
 6-311+G(2d,p)
 ****
 37  38 0
 6-311+G(2d,p)
 ****
 1  2  3  4  5  17  18  19  20  21  22  23  24  25 0
 3-21G
 ****
 27  28  29  34  36  39  40  41  42  43  44  45  46 0
 3-21G
 ****


