%nproc=1
%NoSave
%Mem=1900MB
#P OB98/GEN NMR

erre ene a

0 1
  C       27.273    -184.770     -26.118
  O       26.516    -185.974     -26.234
  P       27.016    -187.279     -25.448
  C       25.764    -187.352     -23.198
  O       25.805    -187.815     -24.544
  C       26.211    -188.450     -22.233
  O       26.363    -187.950     -20.890
  C       25.221    -189.597     -22.128
  O       25.273    -190.420     -23.279
  C       25.669    -190.261     -20.835
  O       26.783    -191.139     -21.064
  C       26.118    -189.050     -19.986
  N       25.163    -188.687     -18.951
  C       25.030    -189.593     -17.894
  O       25.669    -190.645     -17.894
  N       24.164    -189.290     -16.872
  C       23.485    -188.184     -16.910
  N       22.645    -187.934     -15.871
  C       23.588    -187.209     -18.013
  C       24.430    -187.525     -18.994
  O       28.326    -187.146     -24.745
  O       27.094    -188.383     -26.611
  H       26.902    -191.646     -20.237
  H       27.795    -189.026     -26.387
  H       23.006    -186.299     -17.994
  H       24.565    -186.866     -19.844
  H       27.076    -189.265     -19.496
  H       24.871    -190.862     -20.388
  H       24.205    -189.198     -22.004
  H       27.185    -188.829     -22.576
  H       22.585    -188.625     -15.133
  H       24.747    -187.033     -22.953
  H       22.114    -187.079     -15.783
  H       26.401    -186.465     -23.111
  P       23.882    -190.908     -23.909
  C       23.300    -188.916     -25.461
  O       23.747    -190.253     -25.363
  O       22.796    -190.109     -23.042
  O       23.646    -192.382     -23.842
  H       21.996    -190.655     -22.935
  H       23.562    -188.532     -26.452
  H       23.767    -188.281     -24.705
  H       22.214    -188.882     -25.348
  H       26.809    -184.000     -26.698
  H       28.267    -184.938     -26.477
  H       27.310    -184.470     -25.092

 3  4  5  6  7  8  9  10  11  12  13  23  27  28  29  30  32 0
 6-311+G(2d,p)
 ****
 34  35 0
 6-311+G(2d,p)
 ****
 1  2  14  15  16  17  18  19  20  21  22  24  25  26 0
 3-21G
 ****
 31  33  36  37  38  39  40  41  42  43  44  45  46 0
 3-21G
 ****


