%nproc=1
%NoSave
%Mem=1900MB
#P OB98/GEN NMR

erre ene a

0 1
  C      -35.267     260.893    -115.451
  O      -34.400     262.006    -115.528
  H      -35.666     260.657    -116.440
  H      -34.703     260.031    -115.084
  H      -36.086     261.099    -114.758
  P      -35.027     263.373    -116.085
  C      -33.843     264.506    -114.076
  O      -34.161     264.575    -115.459
  C      -32.496     265.176    -113.818
  O      -31.478     264.452    -114.554
  C      -32.425     266.655    -114.235
  O      -32.072     267.468    -113.113
  C      -31.290     266.710    -115.245
  O      -30.464     267.863    -115.100
  C      -30.515     265.425    -114.977
  N      -27.225     266.835    -118.602
  C      -27.449     267.320    -117.361
  N      -28.264     266.833    -116.405
  C      -28.870     265.709    -116.824
  C      -28.724     265.082    -118.050
  C      -27.868     265.704    -118.974
  N      -27.682     265.241    -120.257
  N      -29.517     263.952    -118.119
  C      -30.162     263.922    -116.971
  N      -29.818     264.975    -116.165
  O      -36.426     263.477    -115.312
  O      -35.208     263.431    -117.564
  H      -31.043     268.640    -115.219
  H      -37.136     263.686    -115.948
  H      -26.905     268.225    -117.105
  H      -30.916     263.197    -116.692
  H      -29.779     265.547    -114.173
  H      -31.714     266.714    -116.257
  H      -33.361     267.015    -114.675
  H      -32.258     265.071    -112.752
  H      -33.783     263.456    -113.766
  H      -27.145     265.812    -120.888
  H      -28.242     264.463    -120.576
  H      -34.636     264.994    -113.502
  P      -33.230     268.412    -112.514
  C      -31.616     268.424    -110.473
  O      -32.651     269.092    -111.181
  O      -34.298     267.358    -111.956
  O      -33.830     269.343    -113.513
  H      -35.190     267.754    -111.959
  H      -31.341     269.001    -109.615
  H      -30.765     268.307    -111.111
  H      -31.962     267.461    -110.160

 6  7  8  9  10  11  12  13  14  15  25  28  32  33  34  35 0
 6-311+G(2d,p)
 ****
 36  39  40 0
 6-311+G(2d,p)
 ****
 1  2  3  4  5  16  17  18  19  20  21  22  23  24 0
 3-21G
 ****
 26  27  29  30  31  37  38  41  42  43  44  45  46  47  48 0
 3-21G
 ****


