%nproc=1
%NoSave
%Mem=1900MB
#P OB98/GEN NMR

erre ene a

0 1
  C      385.422      35.256      22.870
  O      385.932      35.762      21.634
  P      384.944      35.704      20.369
  C      385.758      33.378      19.567
  O      384.662      34.167      20.007
  C      385.354      31.917      19.336
  O      386.515      31.099      19.033
  C      384.654      31.279      20.539
  O      383.689      30.354      20.030
  C      385.767      30.503      21.212
  O      385.248      29.477      22.054
  C      386.555      30.014      19.986
  N      387.927      29.623      20.302
  C      388.349      28.367      19.855
  O      387.556      27.613      19.286
  N      389.642      27.977      20.097
  C      390.429      28.749      20.776
  N      391.699      28.303      20.987
  C      390.011      30.057      21.317
  C      388.762      30.426      21.040
  O      385.859      36.220      19.161
  O      383.724      36.553      20.527
  H      384.609      28.946      21.529
  H      385.396      36.916      18.663
  H      390.698      30.659      21.895
  H      388.364      31.367      21.392
  H      386.055      29.150      19.526
  H      386.384      31.176      21.821
  H      384.160      32.006      21.191
  H      384.693      31.882      18.463
  H      391.949      27.406      20.593
  H      386.561      33.414      20.308
  H      392.395      28.821      21.501
  H      386.169      33.821      18.652
  P      382.170      30.842      19.884
  C      381.402      29.478      21.920
  O      381.569      30.769      21.370
  O      381.483      29.559      19.204
  O      381.894      32.082      19.102
  H      380.554      29.756      18.993
  H      381.108      29.579      22.967
  H      382.339      28.916      21.869
  H      380.613      28.942      21.387
  H      386.170      35.350      23.630
  H      385.160      34.225      22.753
  H      384.554      35.814      23.153

 3  4  5  6  7  8  9  10  11  12  13  21  23  27  28  29  30  32 0
 6-311+G(2d,p)
 ****
 34  35 0
 6-311+G(2d,p)
 ****
 1  2  14  15  16  17  18  19  20  22  24  25  26 0
 3-21G
 ****
 31  33  36  37  38  39  40  41  42  43  44  45  46 0
 3-21G
 ****


