%nproc=1
%NoSave
%Mem=1900MB
#P OB98/GEN NMR

erre ene a

0 1
  C     -928.678     159.188    -653.293
  O     -927.683     159.958    -653.980
  P     -928.024     160.971    -655.194
  C     -927.384     163.097    -653.862
  O     -927.124     162.296    -655.009
  C     -926.081     163.736    -653.344
  O     -925.318     162.747    -652.602
  C     -925.106     164.214    -654.409
  O     -925.551     165.415    -655.045
  C     -923.819     164.356    -653.607
  O     -923.762     165.636    -652.940
  C     -923.954     163.222    -652.573
  N     -923.008     162.131    -652.805
  C     -921.897     162.085    -651.970
  O     -921.693     162.967    -651.138
  N     -921.022     161.015    -652.109
  C     -921.210     160.159    -653.077
  N     -920.314     159.135    -653.145
  C     -922.302     160.269    -654.062
  C     -923.154     161.266    -653.877
  O     -929.489     161.250    -655.351
  O     -927.439     160.263    -656.505
  H     -927.931     160.565    -657.285
  H     -924.562     165.713    -652.391
  H     -922.364     159.558    -654.875
  H     -923.983     161.403    -654.547
  H     -923.797     163.630    -651.544
  H     -922.938     164.291    -654.237
  H     -924.993     163.421    -655.176
  H     -926.347     164.561    -652.659
  H     -919.577     159.095    -652.440
  H     -927.820     162.471    -653.080
  H     -920.365     158.391    -653.851
  H     -928.125     163.875    -654.123
  P     -924.889     165.758    -656.457
  C     -927.090     165.660    -657.865
  O     -926.017     166.466    -657.359
  O     -924.674     164.345    -657.160
  O     -923.605     166.546    -656.366
  H     -923.820     164.350    -657.625
  H     -927.960     166.288    -658.018
  H     -927.321     164.841    -657.183
  H     -926.779     165.250    -658.836
  H     -928.210     158.597    -652.534
  H     -929.176     158.546    -653.989
  H     -929.391     159.847    -652.843

 3  4  5  6  7  8  9  10  11  12  13  24  27  28  29  30  32 0
 6-311+G(2d,p)
 ****
 34  35 0
 6-311+G(2d,p)
 ****
 1  2  14  15  16  17  18  19  20  21  22  23  25  26 0
 3-21G
 ****
 31  33  36  37  38  39  40  41  42  43  44  45  46 0
 3-21G
 ****


