%nproc=1
%NoSave
%Mem=1900MB
#P OB98/GEN NMR

erre ene a

0 1
  C     -116.170     343.268      -0.816
  O     -116.201     342.563       0.405
  P     -114.854     342.147       1.171
  C     -115.492     339.659       1.261
  O     -115.219     340.831       2.012
  C     -116.484     338.749       1.988
  O     -115.792     338.020       3.039
  C     -117.670     339.476       2.632
  O     -118.788     338.587       2.539
  C     -117.220     339.615       4.073
  O     -118.303     339.865       4.963
  C     -116.485     338.287       4.280
  N     -115.576     338.331       5.419
  C     -116.147     338.166       6.684
  O     -117.369     338.065       6.805
  N     -115.329     338.170       7.784
  C     -114.065     338.422       7.642
  N     -113.300     338.409       8.767
  C     -113.445     338.729       6.339
  C     -114.247     338.652       5.280
  O     -114.207     343.238       1.955
  O     -113.925     341.564       0.005
  H     -117.939     339.999       5.866
  H     -113.534     342.303      -0.527
  H     -112.399     338.992       6.274
  H     -113.881     338.861       4.283
  H     -117.199     337.468       4.436
  H     -116.521     340.455       4.162
  H     -117.898     340.435       2.168
  H     -116.850     338.002       1.267
  H     -113.765     338.179       9.639
  H     -114.553     339.117       1.122
  H     -112.298     338.512       8.756
  H     -115.870     339.929       0.268
  P     -119.827     338.684       1.322
  C     -121.940     339.533       2.490
  O     -121.283     338.409       1.929
  O     -119.480     337.854       0.127
  O     -119.871     340.243       0.957
  H     -120.276     340.361       0.080
  H     -123.005     339.299       2.608
  H     -121.840     340.410       1.846
  H     -121.514     339.750       3.473
  H     -117.171     343.443      -1.152
  H     -115.643     342.691      -1.548
  H     -115.673     344.205      -0.674

 3  4  5  6  7  8  9  10  11  12  13  23  27  28  29  30  32 0
 6-311+G(2d,p)
 ****
 34  35 0
 6-311+G(2d,p)
 ****
 1  2  14  15  16  17  18  19  20  21  22  24  25  26 0
 3-21G
 ****
 31  33  36  37  38  39  40  41  42  43  44  45  46 0
 3-21G
 ****


