%nproc=1
%NoSave
%Mem=1900MB
#P OB98/GEN NMR

erre ene a

0 1
  C     -535.701    -803.342     528.243
  O     -536.555    -804.389     528.658
  P     -538.139    -804.281     528.430
  C     -537.593    -804.646     525.944
  O     -538.352    -803.895     526.887
  C     -538.531    -805.306     524.928
  O     -539.144    -806.496     525.488
  C     -539.711    -804.440     524.514
  O     -539.427    -803.264     523.783
  C     -540.617    -805.464     523.858
  O     -540.212    -805.742     522.521
  C     -540.384    -806.706     524.761
  N     -541.506    -806.954     525.661
  C     -542.458    -807.853     525.199
  O     -542.393    -808.424     524.116
  N     -543.529    -808.063     526.034
  C     -543.753    -807.435     527.228
  O     -544.753    -807.639     527.895
  C     -542.713    -806.488     527.649
  C     -541.650    -806.283     526.861
  O     -538.861    -803.402     529.399
  O     -538.617    -805.811     528.468
  H     -540.391    -804.946     521.986
  H     -538.213    -806.378     527.784
  H     -544.245    -808.698     525.715
  H     -542.859    -805.984     528.596
  H     -540.873    -805.592     527.148
  H     -540.231    -807.606     524.143
  H     -541.657    -805.125     523.818
  H     -540.223    -804.095     525.425
  H     -537.937    -805.621     524.071
  H     -537.030    -805.425     526.476
  H     -536.878    -803.983     525.452
  P     -540.460    -802.048     523.631
  C     -539.566    -800.555     525.556
  O     -540.618    -801.349     525.064
  O     -541.709    -802.310     522.845
  O     -539.566    -800.968     522.835
  H     -540.146    -800.436     522.277
  H     -539.825    -800.197     526.553
  H     -539.405    -799.689     524.903
  H     -538.644    -801.150     525.622
  H     -534.688    -803.594     528.478
  H     -535.971    -802.439     528.750
  H     -535.798    -803.200     527.187

 3  4  5  6  7  8  9  10  11  12  13  23  28  29  30  31  32 0
 6-311+G(2d,p)
 ****
 33  34 0
 6-311+G(2d,p)
 ****
 1  2  14  15  16  17  18  19  20  21  22  24  25  26  27 0
 3-21G
 ****
 35  36  37  38  39  40  41  42  43  44  45 0
 3-21G
 ****


