%nproc=1
%NoSave
%Mem=1900MB
#P OB98/GEN NMR

erre ene a

0 1
  C     -645.928    -606.867     614.518
  O     -644.675    -606.327     614.949
  P     -643.370    -607.245     614.832
  C     -641.430    -605.424     614.968
  O     -642.127    -606.518     615.546
  C     -640.424    -604.881     615.991
  O     -641.085    -604.040     616.963
  C     -639.697    -605.978     616.778
  O     -638.549    -606.455     616.078
  C     -639.377    -605.274     618.081
  O     -638.231    -604.418     617.908
  C     -640.662    -604.447     618.294
  N     -641.802    -605.089     618.987
  C     -641.570    -605.953     620.059
  O     -640.460    -606.224     620.503
  N     -642.691    -606.487     620.658
  C     -643.988    -606.136     620.397
  O     -644.948    -606.590     621.004
  C     -644.176    -605.101     619.352
  C     -643.086    -604.657     618.697
  O     -643.002    -607.189     613.283
  O     -643.565    -608.642     615.314
  H     -637.541    -604.957     617.488
  H     -643.103    -608.061     612.873
  H     -642.548    -607.158     621.376
  H     -645.168    -604.767     619.149
  H     -643.213    -603.887     617.930
  H     -640.432    -603.530     618.861
  H     -639.109    -605.988     618.852
  H     -640.393    -606.806     616.992
  H     -639.695    -604.265     615.453
  H     -642.135    -604.651     614.682
  H     -640.917    -605.768     614.057
  P     -638.626    -607.829     615.256
  C     -636.862    -606.986     613.596
  O     -637.205    -607.986     614.541
  O     -639.832    -607.995     614.376
  O     -638.567    -608.954     616.406
  H     -639.487    -609.253     616.640
  H     -635.826    -607.123     613.298
  H     -636.979    -605.989     614.038
  H     -637.496    -607.069     612.708
  H     -646.698    -606.138     614.659
  H     -646.156    -607.741     615.091
  H     -645.867    -607.126     613.482

 3  4  5  6  7  8  9  10  11  12  13  23  28  29  30  31  32 0
 6-311+G(2d,p)
 ****
 33  34 0
 6-311+G(2d,p)
 ****
 1  2  14  15  16  17  18  19  20  21  22  24  25  26  27 0
 3-21G
 ****
 35  36  37  38  39  40  41  42  43  44  45 0
 3-21G
 ****


