%nproc=1
%NoSave
%Mem=1900MB
#P OB98/GEN NMR

erre ene a

0 1
  C      107.552    -215.062    -534.347
  O      108.006    -215.846    -533.263
  H      108.176    -215.276    -535.220
  H      107.637    -213.998    -534.106
  H      106.515    -215.308    -534.587
  P      107.227    -215.657    -531.872
  C      106.734    -218.168    -531.449
  O      106.204    -216.888    -531.761
  C      106.011    -219.256    -532.239
  O      106.069    -218.980    -533.660
  C      106.575    -220.657    -532.043
  O      106.063    -221.256    -530.867
  C      106.086    -221.353    -533.311
  O      104.713    -221.770    -533.192
  C      106.234    -220.241    -534.363
  N      108.432    -219.751    -538.882
  C      107.106    -219.613    -538.517
  N      106.230    -219.361    -539.512
  N      106.676    -219.725    -537.286
  C      107.661    -220.012    -536.399
  C      109.012    -220.153    -536.639
  C      109.475    -219.999    -538.000
  O      110.641    -220.043    -538.379
  N      109.693    -220.427    -535.480
  C      108.755    -220.483    -534.552
  N      107.505    -220.259    -535.065
  O      106.266    -214.405    -532.146
  O      108.092    -215.431    -530.680
  H      104.423    -222.156    -534.031
  H      106.129    -213.921    -531.313
  H      108.704    -219.634    -539.843
  H      108.933    -220.686    -533.505
  H      105.448    -220.291    -535.128
  H      106.671    -222.250    -533.526
  H      106.441    -219.595    -540.472
  H      107.673    -220.639    -532.036
  H      105.256    -219.281    -539.255
  H      104.953    -219.224    -531.949
  H      106.605    -218.358    -530.379
  H      107.806    -218.182    -531.687
  P      107.101    -221.557    -529.675
  C      105.426    -220.646    -527.908
  O      106.723    -220.559    -528.483
  O      108.482    -220.965    -530.229
  O      107.217    -222.999    -529.302
  H      109.231    -221.330    -529.719
  H      105.331    -219.917    -527.130
  H      105.282    -221.624    -527.500
  H      104.689    -220.462    -528.661

 6  7  8  9  10  11  12  13  14  15  26  29  33  34 0
 6-311+G(2d,p)
 ****
 36  38  39  40  41 0
 6-311+G(2d,p)
 ****
 1  2  3  4  5  16  17  18  19  20  21  22  23  24  25 0
 3-21G
 ****
 27  28  30  31  32  35  37  42  43  44  45  46  47 0
 3-21G
 ****
 48  49 0
 3-21G
 ****


