%nproc=1
%NoSave
%Mem=1900MB
#P OB98/GEN NMR

erre ene a

0 1
  C     -125.898      22.258      82.276
  O     -127.133      22.431      82.981
  P     -127.916      21.117      83.458
  C     -128.956      20.659      81.119
  O     -129.183      20.914      82.496
  C     -130.162      19.939      80.507
  O     -130.319      18.608      81.042
  C     -131.488      20.649      80.756
  O     -131.709      21.699      79.820
  C     -132.476      19.519      80.510
  O     -132.678      19.344      79.093
  C     -131.737      18.308      81.095
  N     -134.946      15.713      84.025
  C     -134.833      15.756      82.648
  N     -135.695      14.988      81.949
  N     -133.952      16.483      82.016
  C     -133.143      17.187      82.842
  C     -133.155      17.230      84.217
  C     -134.146      16.430      84.908
  O     -134.301      16.360      86.123
  N     -132.186      18.062      84.702
  C     -131.568      18.513      83.627
  N     -132.125      18.023      82.470
  O     -128.588      21.586      84.834
  O     -127.044      19.920      83.651
  H     -133.335      20.013      78.819
  H     -128.712      20.818      85.422
  H     -135.644      15.137      84.463
  H     -130.723      19.187      83.630
  H     -131.904      17.394      80.518
  H     -133.457      19.722      80.945
  H     -136.366      14.362      82.373
  H     -131.562      20.999      81.794
  H     -135.606      14.980      80.941
  H     -129.998      19.860      79.424
  H     -128.057      20.052      80.986
  H     -128.754      21.605      80.610
  P     -131.117      23.149      80.171
  C     -133.374      24.385      79.829
  O     -132.043      24.200      79.395
  O     -129.738      23.171      79.358
  O     -130.908      23.403      81.625
  H     -129.084      23.718      79.831
  H     -133.797      25.245      79.299
  H     -133.410      24.582      80.903
  H     -133.975      23.501      79.592
  H     -125.494      23.216      82.024
  H     -126.074      21.698      81.381
  H     -125.204      21.730      82.896

 3  4  5  6  7  8  9  10  11  12  23  26  30  31 0
 6-311+G(2d,p)
 ****
 33  35  36  37  38 0
 6-311+G(2d,p)
 ****
 1  2  13  14  15  16  17  18  19  20  21  22  24  25 0
 3-21G
 ****
 27  28  29  32  34  39  40  41  42  43  44  45  46  47  48  49 0
 3-21G
 ****


