%nproc=1
%NoSave
%Mem=1900MB
#P OB98/GEN NMR

erre ene a

0 1
  C       77.271     128.132    -124.375
  O       78.553     128.177    -123.780
  H       76.701     129.003    -124.047
  H       76.749     127.228    -124.053
  H       77.348     128.151    -125.467
  P       79.663     127.181    -124.376
  C       79.639     124.638    -124.892
  O       79.146     125.690    -124.077
  C       78.605     123.522    -125.000
  O       77.334     124.053    -125.427
  C       78.965     122.423    -125.996
  O       79.837     121.460    -125.418
  C       77.593     121.825    -126.265
  O       77.205     120.980    -125.160
  C       76.704     123.077    -126.304
  N       73.458     123.964    -130.099
  C       73.272     123.269    -128.919
  N       72.049     122.729    -128.727
  N       74.200     123.116    -128.010
  C       75.380     123.689    -128.348
  C       75.687     124.396    -129.490
  C       74.648     124.573    -130.478
  O       74.759     125.190    -131.535
  N       76.988     124.828    -129.481
  C       77.473     124.363    -128.346
  N       76.537     123.663    -127.622
  O       80.887     127.372    -123.359
  O       80.077     127.459    -125.782
  H       77.862     120.263    -125.105
  H       81.558     127.945    -123.777
  H       72.714     124.044    -130.769
  H       78.487     124.511    -127.996
  H       75.700     122.883    -125.912
  H       77.573     121.204    -127.163
  H       71.298     122.789    -129.395
  H       79.376     122.836    -126.926
  H       71.891     122.218    -127.866
  H       78.460     123.100    -123.996
  H       80.557     124.241    -124.445
  H       79.867     125.035    -125.887
  P       81.141     121.025    -126.245
  C       81.588     119.733    -128.450
  O       80.638     120.098    -127.458
  O       81.854     119.990    -125.253
  O       82.058     122.137    -126.621
  H       82.689     120.373    -124.916
  H       81.115     119.120    -129.189
  H       82.388     119.188    -127.994
  H       81.976     120.616    -128.914

 6  7  8  9  10  11  12  13  14  15  26  29  33  34 0
 6-311+G(2d,p)
 ****
 36  38  39  40  41 0
 6-311+G(2d,p)
 ****
 1  2  3  4  5  16  17  18  19  20  21  22  23  24  25 0
 3-21G
 ****
 27  28  30  31  32  35  37  42  43  44  45  46  47 0
 3-21G
 ****
 48  49 0
 3-21G
 ****


