%nproc=1
%NoSave
%Mem=1900MB
#P OB98/GEN NMR

erre ene a

0 1
  C      -28.799    -243.256      -5.829
  O      -28.881    -242.163      -4.939
  H      -27.874    -243.168      -6.403
  H      -29.643    -243.249      -6.522
  H      -28.777    -244.199      -5.274
  P      -30.182    -242.018      -4.016
  C      -31.820    -241.257      -5.862
  O      -31.452    -242.294      -4.956
  C      -33.346    -241.155      -5.955
  O      -33.858    -240.970      -4.611
  C      -33.804    -239.965      -6.815
  O      -34.722    -240.341      -7.837
  C      -34.261    -238.945      -5.778
  O      -35.228    -238.029      -6.250
  C      -34.723    -239.818      -4.608
  N      -34.674    -239.142      -3.312
  C      -35.554    -238.080      -3.112
  O      -36.376    -237.680      -3.932
  N      -35.473    -237.469      -1.888
  C      -34.609    -237.793      -0.882
  O      -34.586    -237.208       0.195
  C      -33.685    -238.902      -1.164
  C      -33.760    -239.514      -2.347
  O      -30.263    -240.762      -3.211
  O      -30.141    -243.315      -3.078
  H      -35.724    -237.706      -5.469
  H      -29.860    -243.057      -2.179
  H      -36.115    -236.709      -1.723
  H      -32.982    -239.179      -0.393
  H      -33.094    -240.340      -2.587
  H      -35.747    -240.160      -4.763
  H      -33.391    -238.358      -5.464
  H      -32.961    -239.545      -7.376
  H      -33.745    -242.104      -6.331
  H      -31.395    -241.501      -6.841
  H      -31.405    -240.305      -5.518
  P      -34.474    -240.173      -9.401
  C      -36.045    -238.156     -10.021
  O      -34.729    -238.641      -9.797
  O      -35.096    -241.206     -10.279
  O      -32.873    -240.314      -9.549
  H      -32.714    -240.723     -10.427
  H      -36.004    -237.117     -10.273
  H      -36.629    -238.285      -9.134
  H      -36.494    -238.700     -10.826

 6  7  8  9  10  11  12  13  14  15  16  26  31  32  33  34  35 0
 6-311+G(2d,p)
 ****
 36  37 0
 6-311+G(2d,p)
 ****
 1  2  3  4  5  17  18  19  20  21  22  23  24  25 0
 3-21G
 ****
 27  28  29  30  38  39  40  41  42  43  44  45 0
 3-21G
 ****


