%nproc=1
%NoSave
%Mem=1900MB
#P OB98/GEN NMR

erre ene a

0 1
  C     -214.317      89.017      43.198
  O     -213.472      89.345      42.114
  H     -213.775      89.189      44.131
  H     -214.604      87.963      43.147
  H     -215.210      89.647      43.185
  P     -214.071      89.099      40.646
  C     -214.644      87.012      39.220
  O     -214.223      87.509      40.482
  C     -214.487      85.495      39.164
  O     -213.117      85.133      38.881
  C     -214.874      84.775      40.451
  O     -216.274      84.559      40.509
  C     -214.084      83.482      40.315
  O     -214.759      82.552      39.440
  C     -212.774      83.970      39.682
  N     -209.040      82.126      42.536
  C     -209.962      81.473      41.745
  N     -209.900      80.123      41.730
  N     -210.875      82.084      41.037
  C     -210.858      83.428      41.191
  C     -209.998      84.193      41.946
  C     -208.959      83.506      42.681
  O     -208.062      84.033      43.334
  N     -210.289      85.528      41.830
  C     -211.342      85.566      41.035
  N     -211.728      84.316      40.626
  O     -212.844      89.453      39.678
  O     -215.277      89.905      40.302
  H     -214.161      81.812      39.238
  H     -213.191      89.902      38.884
  H     -208.341      81.606      43.035
  H     -211.851      86.467      40.721
  H     -212.346      83.225      39.002
  H     -213.975      82.974      41.275
  H     -209.432      79.601      42.457
  H     -214.521      85.325      41.332
  H     -210.624      79.644      41.209
  H     -215.093      85.133      38.324
  H     -214.031      87.469      38.437
  H     -215.692      87.281      39.058
  P     -217.041      84.927      41.867
  C     -217.543      83.750      44.126
  O     -217.043      83.623      42.803
  O     -218.565      85.052      41.393
  O     -216.580      86.185      42.521
  H     -218.825      85.991      41.356
  H     -217.480      82.805      44.623
  H     -218.564      84.068      44.092
  H     -216.961      84.473      44.659

 6  7  8  9  10  11  12  13  14  15  26  29  33  34 0
 6-311+G(2d,p)
 ****
 36  38  39  40  41 0
 6-311+G(2d,p)
 ****
 1  2  3  4  5  16  17  18  19  20  21  22  23  24  25 0
 3-21G
 ****
 27  28  30  31  32  35  37  42  43  44  45  46  47 0
 3-21G
 ****
 48  49 0
 3-21G
 ****


