%nproc=1
%NoSave
%Mem=1900MB
#P OB98/GEN NMR

erre ene a

0 1
  C     -953.726    -233.892      93.621
  O     -954.433    -232.713      93.956
  H     -954.381    -234.535      93.026
  H     -953.434    -234.430      94.525
  H     -952.841    -233.644      93.031
  P     -953.675    -231.682      94.925
  C     -953.066    -229.871      93.149
  O     -952.621    -230.958      93.953
  C     -952.352    -228.589      93.576
  O     -952.461    -228.397      95.007
  C     -950.856    -228.587      93.282
  O     -950.563    -228.304      91.924
  C     -950.402    -227.469      94.199
  O     -950.755    -226.193      93.626
  C     -951.243    -227.759      95.463
  N     -950.551    -228.611      96.430
  C     -949.607    -227.985      97.257
  O     -949.384    -226.780      97.152
  N     -948.920    -228.749      98.165
  C     -949.151    -230.020      98.257
  N     -948.428    -230.733      99.168
  C     -950.143    -230.718      97.418
  C     -950.800    -229.962      96.539
  O     -952.731    -232.625      95.814
  O     -954.545    -230.758      95.713
  H     -950.287    -226.131      92.772
  H     -952.124    -232.067      96.362
  H     -950.299    -231.784      97.521
  H     -951.540    -230.404      95.884
  H     -951.532    -226.827      95.964
  H     -949.318    -227.456      94.365
  H     -950.379    -229.519      93.601
  H     -952.856    -227.746      93.089
  H     -947.709    -230.238      99.682
  H     -954.144    -229.760      93.281
  H     -948.411    -231.744      99.173
  H     -952.851    -230.070      92.099
  P     -949.175    -228.857      91.331
  C     -950.175    -230.378      89.474
  O     -949.481    -230.315      90.714
  O     -948.327    -229.192      92.642
  O     -948.457    -227.911      90.422
  H     -947.388    -228.958      92.525
  H     -950.306    -231.401      89.190
  H     -949.609    -229.869      88.722
  H     -951.132    -229.911      89.577

 6  7  8  9  10  11  12  13  14  15  16  26  30  31  32  33  35 0
 6-311+G(2d,p)
 ****
 37  38 0
 6-311+G(2d,p)
 ****
 1  2  3  4  5  17  18  19  20  21  22  23  24  25 0
 3-21G
 ****
 27  28  29  34  36  39  40  41  42  43  44  45  46 0
 3-21G
 ****


