%nproc=1
%NoSave
%Mem=1900MB
#P OB98/GEN NMR

erre ene a

0 1
  C      133.217     185.923     -78.291
  O      133.514     184.541     -78.341
  H      134.095     186.458     -77.917
  H      132.378     186.104     -77.613
  H      132.977     186.295     -79.292
  P      132.336     183.574     -78.845
  C      131.335     181.831     -77.204
  O      131.474     183.204     -77.540
  C      132.306     181.456     -76.088
  O      132.141     182.332     -74.950
  C      132.148     180.033     -75.566
  O      132.825     179.102     -76.395
  C      132.770     180.150     -74.184
  O      134.210     180.081     -74.243
  C      132.308     181.545     -73.742
  N      130.138     180.012     -69.443
  C      131.444     179.893     -69.876
  N      132.285     179.215     -69.061
  N      131.885     180.382     -71.003
  C      130.925     181.002     -71.728
  C      129.601     181.200     -71.402
  C      129.135     180.680     -70.134
  O      128.008     180.810     -69.665
  N      128.947     181.893     -72.389
  C      129.858     182.079     -73.322
  N      131.071     181.543     -72.976
  O      133.096     182.205     -79.184
  O      131.554     184.073     -80.014
  H      134.476     179.206     -74.573
  H      132.625     181.750     -79.908
  H      129.865     179.630     -68.556
  H      129.691     182.593     -74.260
  H      133.059     182.052     -73.124
  H      132.448     179.341     -73.523
  H      131.944     178.554     -68.376
  H      131.085     179.772     -75.465
  H      133.241     179.105     -69.380
  H      133.326     181.611     -76.471
  H      131.556     181.224     -78.090
  H      130.306     181.638     -76.886
  P      132.421     177.554     -76.267
  C      134.410     176.017     -75.589
  O      133.398     176.920     -75.163
  O      132.955     176.919     -77.635
  O      130.965     177.305     -76.062
  H      132.533     176.052     -77.789
  H      134.972     175.686     -74.741
  H      135.062     176.512     -76.278
  H      133.957     175.174     -76.068

 6  7  8  9  10  11  12  13  14  15  26  29  33  34 0
 6-311+G(2d,p)
 ****
 36  38  39  40  41 0
 6-311+G(2d,p)
 ****
 1  2  3  4  5  16  17  18  19  20  21  22  23  24  25 0
 3-21G
 ****
 27  28  30  31  32  35  37  42  43  44  45  46  47 0
 3-21G
 ****
 48  49 0
 3-21G
 ****


