%nproc=1
%NoSave
%Mem=1900MB
#P OB98/GEN NMR

erre ene a

0 1
  C      -32.623      22.230      58.502
  O      -31.349      22.192      57.890
  H      -32.823      21.255      58.954
  H      -33.404      22.443      57.767
  H      -32.638      22.989      59.289
  P      -30.932      23.417      56.939
  C      -28.863      24.957      56.810
  O      -29.624      24.061      57.617
  C      -28.322      26.120      57.646
  O      -29.412      26.857      58.236
  C      -27.457      25.682      58.817
  O      -26.212      25.132      58.442
  C      -27.497      26.900      59.727
  O      -26.516      27.881      59.405
  C      -28.911      27.463      59.445
  N      -29.815      27.259      60.570
  C      -29.725      28.193      61.597
  O      -28.926      29.129      61.595
  N      -30.560      27.993      62.661
  C      -31.420      26.945      62.815
  O      -32.114      26.799      63.814
  C      -31.453      25.976      61.708
  C      -30.661      26.173      60.651
  O      -32.014      24.412      56.645
  O      -30.346      22.701      55.634
  H      -25.642      27.472      59.554
  H      -30.301      23.329      54.874
  H      -30.516      28.665      63.410
  H      -32.122      25.130      61.798
  H      -30.667      25.470      59.822
  H      -28.857      28.542      59.251
  H      -27.341      26.624      60.773
  H      -27.987      24.884      59.351
  H      -27.774      26.797      56.981
  H      -29.527      25.351      56.034
  H      -28.041      24.415      56.332
  P      -25.281      24.305      59.442
  C      -24.319      21.897      59.591
  O      -25.039      22.846      58.813
  O      -25.595      24.414      60.899
  O      -23.851      25.017      59.203
  H      -23.375      25.009      60.056
  H      -24.237      20.979      59.047
  H      -24.838      21.722      60.510
  H      -23.341      22.276      59.801

 6  7  8  9  10  11  12  13  14  15  16  26  31  32  33  34  35 0
 6-311+G(2d,p)
 ****
 36  37 0
 6-311+G(2d,p)
 ****
 1  2  3  4  5  17  18  19  20  21  22  23  24  25 0
 3-21G
 ****
 27  28  29  30  38  39  40  41  42  43  44  45 0
 3-21G
 ****


