%nproc=1
%NoSave
%Mem=1900MB
#P OB98/GEN NMR

erre ene a

0 1
  C      403.641      52.121    -131.965
  O      404.130      53.174    -132.762
  H      404.451      51.405    -131.800
  H      402.821      51.618    -132.487
  H      403.292      52.482    -130.993
  P      403.333      54.565    -132.777
  C      404.090      55.883    -130.690
  O      404.258      55.686    -132.094
  C      405.279      56.642    -130.088
  O      406.445      55.784    -130.078
  C      405.650      57.891    -130.892
  O      404.926      59.058    -130.529
  C      407.134      58.044    -130.565
  O      407.332      58.823    -129.376
  C      407.598      56.600    -130.343
  N      411.903      56.702    -133.111
  C      411.484      57.575    -132.113
  N      412.303      58.621    -131.866
  N      410.369      57.434    -131.461
  C      409.602      56.403    -131.892
  C      409.899      55.487    -132.874
  C      411.180      55.601    -133.548
  O      411.595      54.851    -134.421
  N      408.870      54.598    -133.069
  C      407.915      55.033    -132.262
  N      408.344      56.074    -131.471
  O      402.185      54.345    -131.677
  O      402.728      54.946    -134.096
  H      408.216      58.604    -129.017
  H      401.394      54.857    -131.923
  H      412.786      56.848    -133.564
  H      406.923      54.604    -132.177
  H      408.256      56.521    -129.466
  H      407.658      58.562    -131.372
  H      413.133      58.823    -132.398
  H      405.552      57.702    -131.963
  H      411.949      59.378    -131.285
  H      405.052      56.887    -129.040
  H      404.013      54.893    -130.243
  H      403.160      56.416    -130.495
  P      404.361      60.051    -131.648
  C      401.819      59.546    -131.214
  O      402.881      60.479    -131.239
  O      404.135      59.091    -132.900
  O      405.242      61.214    -131.986
  H      404.887      59.155    -133.536
  H      400.918      60.039    -130.915
  H      402.046      58.765    -130.518
  H      401.689      59.127    -132.190

 6  7  8  9  10  11  12  13  14  15  26  29  33  34 0
 6-311+G(2d,p)
 ****
 36  38  39  40  41 0
 6-311+G(2d,p)
 ****
 1  2  3  4  5  16  17  18  19  20  21  22  23  24  25 0
 3-21G
 ****
 27  28  30  31  32  35  37  42  43  44  45  46  47 0
 3-21G
 ****
 48  49 0
 3-21G
 ****


