%nproc=1
%NoSave
%Mem=1900MB
#P OB98/GEN NMR

erre ene a

0 1
  C      -33.442      17.411    -135.213
  O      -32.088      17.850    -135.360
  P      -31.663      19.159    -134.535
  C      -32.311      21.673    -134.530
  O      -32.363      20.430    -135.217
  C      -31.991      22.803    -135.512
  O      -30.614      22.763    -135.943
  C      -32.813      22.742    -136.794
  O      -34.145      23.173    -136.566
  C      -31.996      23.654    -137.703
  O      -32.276      25.035    -137.416
  C      -30.556      23.320    -137.280
  N      -29.255      22.348    -142.135
  C      -29.912      23.385    -141.565
  N      -30.219      23.568    -140.263
  C      -29.770      22.543    -139.518
  C      -29.083      21.423    -139.958
  C      -28.829      21.340    -141.337
  N      -28.175      20.277    -141.918
  N      -28.790      20.586    -138.899
  C      -29.309      21.182    -137.844
  N      -29.902      22.374    -138.166
  O      -30.114      19.337    -134.900
  O      -31.872      19.034    -133.061
  H      -31.729      25.575    -138.021
  H      -29.561      19.108    -134.129
  H      -30.230      24.172    -142.242
  H      -29.283      20.791    -136.834
  H      -29.919      24.213    -137.236
  H      -32.199      23.492    -138.766
  H      -32.817      21.718    -137.193
  H      -32.171      23.760    -135.003
  H      -31.552      21.642    -133.745
  H      -28.101      20.259    -142.924
  H      -27.930      19.481    -141.348
  H      -33.272      21.842    -134.032
  P      -35.269      22.049    -136.361
  C      -36.232      20.224    -137.892
  O      -35.250      21.234    -137.747
  O      -36.611      22.909    -136.483
  O      -35.125      21.230    -135.124
  H      -36.578      23.525    -137.239
  H      -36.127      19.777    -138.885
  H      -37.232      20.653    -137.799
  H      -36.084      19.448    -137.137
  H      -33.600      16.536    -135.808
  H      -34.105      18.186    -135.535
  H      -33.633      17.182    -134.185

 3  4  5  6  7  8  9  10  11  12  22  25  29  30  31  32 0
 6-311+G(2d,p)
 ****
 33  36  37 0
 6-311+G(2d,p)
 ****
 1  2  13  14  15  16  17  18  19  20  21  23  24  26 0
 3-21G
 ****
 27  28  34  35  38  39  40  41  42  43  44  45  46  47  48 0
 3-21G
 ****


