%nproc=1
%NoSave
%Mem=1900MB
#P OB98/GEN NMR

erre ene a

0 1
  C      -76.366     252.727    -260.923
  O      -75.952     254.044    -261.235
  H      -76.744     252.251    -261.833
  H      -77.170     252.730    -260.179
  H      -75.520     252.146    -260.544
  P      -75.505     255.000    -260.029
  C      -72.987     254.411    -260.080
  O      -74.221     254.304    -259.375
  C      -71.846     254.677    -259.106
  O      -72.072     255.920    -258.399
  C      -71.720     253.611    -258.021
  O      -71.117     252.442    -258.549
  C      -70.909     254.352    -256.979
  O      -69.516     254.379    -257.312
  C      -71.520     255.774    -257.066
  N      -72.536     256.015    -256.046
  C      -72.094     255.989    -254.723
  O      -70.911     255.786    -254.464
  N      -73.008     256.186    -253.718
  C      -74.252     256.396    -254.013
  N      -75.121     256.579    -252.980
  C      -74.765     256.443    -255.401
  C      -73.855     256.241    -256.358
  O      -76.571     255.391    -259.045
  O      -74.887     256.276    -260.777
  H      -69.476     254.598    -258.266
  H      -75.580     256.944    -260.946
  H      -75.811     256.625    -255.599
  H      -74.150     256.261    -257.400
  H      -70.734     256.539    -256.962
  H      -71.010     253.900    -255.996
  H      -72.700     253.384    -257.602
  H      -70.917     254.783    -259.674
  H      -74.729     256.531    -252.042
  H      -73.088     255.249    -260.780
  H      -76.091     256.838    -253.086
  H      -72.782     253.501    -260.658
  P      -71.294     251.034    -257.806
  C      -73.349     250.762    -259.346
  O      -72.829     250.625    -258.025
  O      -70.812     250.989    -256.392
  O      -70.516     250.016    -258.777
  H      -69.537     250.117    -258.685
  H      -74.375     250.459    -259.359
  H      -72.787     250.146    -260.016
  H      -73.275     251.784    -259.654

 6  7  8  9  10  11  12  13  14  15  16  26  30  31  32  33  35 0
 6-311+G(2d,p)
 ****
 37  38 0
 6-311+G(2d,p)
 ****
 1  2  3  4  5  17  18  19  20  21  22  23  24  25 0
 3-21G
 ****
 27  28  29  34  36  39  40  41  42  43  44  45  46 0
 3-21G
 ****


