%nproc=1
%NoSave
%Mem=1900MB
#P OB98/GEN NMR

erre ene a

0 1
  C      512.383     227.756      90.399
  O      511.975     226.389      90.337
  P      512.545     225.399      91.466
  C      510.099     225.130      92.295
  O      511.457     225.403      92.640
  C      509.508     224.081      93.228
  O      509.598     224.521      94.600
  C      508.046     223.763      92.982
  O      507.851     222.849      91.918
  C      507.657     223.125      94.311
  O      508.099     221.747      94.325
  C      508.462     223.959      95.316
  N      505.875     225.445      99.472
  C      506.474     224.279      99.151
  N      507.121     223.956      98.016
  C      507.109     224.976      97.149
  C      506.494     226.218      97.321
  C      505.862     226.442      98.551
  N      505.281     227.650      98.880
  N      506.681     226.998      96.200
  C      507.393     226.267      95.378
  N      507.678     225.035      95.905
  O      513.767     226.232      92.093
  O      512.971     224.057      90.966
  H      507.505     221.256      93.748
  H      514.403     225.619      92.510
  H      506.425     223.501      99.919
  H      507.725     226.578      94.393
  H      508.857     223.355      96.131
  H      506.575     223.108      94.474
  H      507.455     224.686      92.839
  H      510.115     223.167      93.135
  H      510.059     224.768      91.268
  H      505.006     227.789      99.854
  H      505.450     228.443      98.278
  H      509.519     226.057      92.359
  P      506.478     222.983      91.073
  C      507.415     223.971      88.866
  O      506.727     224.206      90.071
  O      505.458     223.567      92.156
  O      506.011     221.707      90.467
  H      504.541     223.327      91.917
  H      507.233     224.813      88.179
  H      507.096     223.052      88.389
  H      508.495     223.926      89.054
  H      511.934     228.299      89.594
  H      513.448     227.814      90.318
  H      512.073     228.179      91.332

 3  4  5  6  7  8  9  10  11  12  22  25  29  30  31  32 0
 6-311+G(2d,p)
 ****
 33  36  37 0
 6-311+G(2d,p)
 ****
 1  2  13  14  15  16  17  18  19  20  21  23  24  26 0
 3-21G
 ****
 27  28  34  35  38  39  40  41  42  43  44  45  46  47  48 0
 3-21G
 ****


