%nproc=1
%NoSave
%Mem=1900MB
#P OB98/GEN NMR

erre ene a

0 1
  C     -117.470     138.151     338.319
  O     -116.787     137.016     337.806
  P     -115.250     136.819     338.240
  C     -114.488     136.821     335.755
  O     -114.363     137.416     337.042
  C     -113.247     135.994     335.403
  O     -113.562     135.126     334.287
  C     -112.025     136.835     335.016
  O     -110.862     136.180     335.531
  C     -112.005     136.759     333.505
  O     -110.700     136.985     332.982
  C     -112.565     135.347     333.265
  N     -113.127     135.190     331.928
  C     -112.289     134.635     330.951
  O     -111.112     134.374     331.220
  N     -112.784     134.436     329.686
  C     -113.977     134.859     329.393
  N     -114.425     134.634     328.127
  C     -114.846     135.558     330.361
  C     -114.372     135.672     331.598
  O     -115.044     135.236     338.098
  O     -114.919     137.319     339.610
  H     -110.327     137.782     333.423
  H     -114.396     134.915     338.760
  H     -115.817     135.928     330.052
  H     -114.946     136.154     332.377
  H     -111.778     134.589     333.403
  H     -112.681     137.516     333.082
  H     -112.075     137.859     335.408
  H     -113.012     135.352     336.258
  H     -113.808     134.161     327.481
  H     -114.595     137.611     335.006
  H     -115.342     134.931     327.805
  H     -115.388     136.195     335.728
  P     -109.736     137.092     336.218
  C     -108.156     136.571     334.260
  O     -108.805     137.581     335.011
  O     -108.805     135.981     336.910
  O     -110.166     138.126     337.207
  H     -108.099     136.416     337.427
  H     -107.673     137.034     333.397
  H     -108.883     135.831     333.906
  H     -107.392     136.083     334.876
  H     -118.475     138.158     337.953
  H     -116.969     139.042     338.002
  H     -117.480     138.108     339.388

 3  4  5  6  7  8  9  10  11  12  13  21  23  27  28  29  30  32 0
 6-311+G(2d,p)
 ****
 34  35 0
 6-311+G(2d,p)
 ****
 1  2  14  15  16  17  18  19  20  22  24  25  26 0
 3-21G
 ****
 31  33  36  37  38  39  40  41  42  43  44  45  46 0
 3-21G
 ****


