%nproc=1
%NoSave
%Mem=1900MB
#P OB98/GEN NMR

erre ene a

0 1
  C       25.384     523.850     300.295
  O       26.489     523.000     299.999
  P       27.867     522.982     300.801
  C       27.530     520.544     301.712
  O       28.334     521.464     300.967
  C       27.525     519.129     301.105
  O       26.694     519.113     299.917
  C       28.936     518.737     300.657
  O       29.859     518.206     301.592
  C       28.714     517.845     299.430
  O       28.689     516.460     299.765
  C       27.352     518.301     298.914
  N       28.054     518.109     293.849
  C       28.120     517.081     294.772
  N       28.458     515.863     294.307
  N       27.885     517.258     296.046
  C       27.635     518.541     296.399
  C       27.572     519.642     295.573
  C       27.777     519.438     294.147
  O       27.729     520.295     293.285
  N       27.325     520.788     296.277
  C       27.275     520.392     297.533
  N       27.446     519.027     297.650
  O       27.912     523.851     302.011
  O       28.917     523.584     299.736
  H       29.554     516.229     300.153
  H       29.595     524.077     300.253
  H       28.226     517.920     292.876
  H       27.106     521.034     298.388
  H       26.693     517.447     298.725
  H       29.536     517.975     298.713
  H       28.760     515.694     293.363
  H       29.418     519.644     300.276
  H       28.713     515.172     295.013
  H       27.075     518.412     301.796
  H       26.512     520.955     301.724
  H       27.866     520.498     302.746
  P       31.438     518.059     301.384
  C       31.950     519.690     303.280
  O       32.165     518.390     302.769
  O       31.837     519.319     300.474
  O       31.877     516.773     300.742
  H       32.721     519.179     300.069
  H       32.700     519.910     304.039
  H       30.961     519.746     303.745
  H       32.014     520.446     302.493
  H       24.590     523.657     299.604
  H       25.688     524.872     300.212
  H       25.044     523.659     301.291

 3  4  5  6  7  8  9  10  11  12  23  26  30  31 0
 6-311+G(2d,p)
 ****
 33  35  36  37  38 0
 6-311+G(2d,p)
 ****
 1  2  13  14  15  16  17  18  19  20  21  22  24  25 0
 3-21G
 ****
 27  28  29  32  34  39  40  41  42  43  44  45  46  47  48  49 0
 3-21G
 ****


