%nproc=1
%NoSave
%Mem=1900MB
#P OB98/GEN NMR

erre ene a

0 1
  C     -224.314     -81.455     -77.546
  O     -223.119     -81.869     -76.889
  P     -222.860     -83.439     -76.661
  C     -223.931     -83.765     -74.347
  O     -224.039     -84.027     -75.739
  C     -225.235     -84.068     -73.592
  O     -225.613     -85.467     -73.746
  C     -225.171     -83.784     -72.087
  O     -226.463     -83.302     -71.695
  C     -224.915     -85.162     -71.503
  O     -225.223     -85.236     -70.123
  C     -225.783     -86.016     -72.431
  N     -225.430     -87.427     -72.383
  C     -226.121     -88.229     -71.480
  O     -226.921     -87.726     -70.692
  N     -225.867     -89.580     -71.473
  C     -224.902     -90.057     -72.196
  N     -224.693     -91.400     -72.180
  C     -224.029     -89.205     -73.031
  C     -224.364     -87.922     -73.092
  O     -221.481     -83.804     -76.229
  O     -223.196     -84.069     -78.100
  H     -224.972     -86.125     -69.788
  H     -222.602     -84.829     -78.259
  H     -223.186     -89.631     -73.549
  H     -223.786     -87.217     -73.683
  H     -226.845     -85.915     -72.170
  H     -223.854     -85.420     -71.626
  H     -224.417     -83.039     -71.815
  H     -226.033     -83.465     -74.043
  H     -225.284     -91.965     -71.589
  H     -223.672     -82.712     -74.203
  H     -223.996     -91.851     -72.756
  H     -223.096     -84.344     -73.937
  P     -226.649     -81.735     -71.397
  C     -226.207     -81.465     -68.848
  O     -225.701     -81.347     -70.165
  O     -228.105     -81.705     -70.721
  O     -226.616     -80.833     -72.587
  H     -228.497     -80.818     -70.853
  H     -225.371     -81.442     -68.146
  H     -226.744     -82.408     -68.710
  H     -226.877     -80.627     -68.631
  H     -224.331     -80.387     -77.617
  H     -225.163     -81.789     -76.986
  H     -224.346     -81.878     -78.528

 3  4  5  6  7  8  9  10  11  12  13  23  27  28  29  30  32 0
 6-311+G(2d,p)
 ****
 34  35 0
 6-311+G(2d,p)
 ****
 1  2  14  15  16  17  18  19  20  21  22  24  25  26 0
 3-21G
 ****
 31  33  36  37  38  39  40  41  42  43  44  45  46 0
 3-21G
 ****


