%nproc=1
%NoSave
%Mem=1900MB
#P OB98/GEN NMR

erre ene a

0 1
  C      -40.839      -2.025     414.841
  O      -41.254      -1.614     416.146
  P      -41.515      -2.605     417.368
  C      -43.980      -1.761     417.683
  O      -42.705      -2.006     418.255
  C      -44.883      -0.871     418.567
  O      -44.449       0.509     418.467
  C      -46.325      -0.909     418.068
  O      -47.190      -1.972     418.458
  C      -46.876       0.477     418.379
  O      -47.560       0.539     419.626
  C      -45.621       1.355     418.413
  N      -47.546       5.426     415.978
  C      -48.023       4.774     417.103
  N      -49.179       5.220     417.616
  N      -47.413       3.753     417.657
  C      -46.310       3.350     416.989
  C      -45.753       3.893     415.853
  C      -46.394       5.066     415.278
  O      -46.008       5.685     414.299
  N      -44.640       3.209     415.454
  C      -44.536       2.216     416.328
  N      -45.530       2.264     417.287
  O      -40.298      -3.077     418.093
  O      -42.190      -3.893     416.665
  H      -48.147      -0.234     419.694
  H      -41.902      -4.680     417.173
  H      -48.033       6.222     415.602
  H      -43.771       1.457     416.310
  H      -45.593       1.979     419.318
  H      -47.604       0.782     417.610
  H      -49.752       5.914     417.169
  H      -46.281      -0.971     416.975
  H      -49.643       4.619     418.299
  H      -44.780      -1.151     419.626
  H      -44.449      -2.731     417.522
  H      -43.864      -1.293     416.698
  P      -48.328      -2.634     417.553
  C      -50.289      -2.661     419.207
  O      -49.321      -3.442     418.519
  O      -47.567      -3.814     416.774
  O      -48.997      -1.711     416.587
  H      -48.089      -4.117     416.007
  H      -50.684      -3.257     420.049
  H      -51.107      -2.409     418.534
  H      -49.842      -1.740     419.600
  H      -40.737      -1.165     414.212
  H      -41.571      -2.686     414.426
  H      -39.899      -2.531     414.909

 3  4  5  6  7  8  9  10  11  12  23  26  30  31 0
 6-311+G(2d,p)
 ****
 33  35  36  37  38 0
 6-311+G(2d,p)
 ****
 1  2  13  14  15  16  17  18  19  20  21  22  24  25 0
 3-21G
 ****
 27  28  29  32  34  39  40  41  42  43  44  45  46  47  48  49 0
 3-21G
 ****


