%nproc=1
%NoSave
%Mem=1900MB
#P OB98/GEN NMR

erre ene a

0 1
  C       68.402     132.273    -165.044
  O       67.798     131.153    -165.661
  H       68.941     131.936    -164.155
  H       67.643     132.998    -164.737
  H       69.114     132.747    -165.725
  P       66.940     131.391    -166.992
  C       64.884     131.684    -165.458
  O       65.642     132.215    -166.536
  C       63.429     132.122    -165.577
  O       63.346     133.545    -165.780
  C       62.680     131.472    -166.740
  O       62.251     130.167    -166.387
  C       61.532     132.454    -166.909
  O       60.552     132.239    -165.877
  C       62.245     133.801    -166.695
  N       61.518     137.309    -170.280
  C       60.708     136.941    -169.223
  N       59.516     137.568    -169.137
  N       61.029     136.026    -168.345
  C       62.219     135.436    -168.601
  C       63.102     135.704    -169.623
  C       62.760     136.756    -170.556
  O       63.457     137.127    -171.496
  N       64.178     134.854    -169.595
  C       63.965     134.100    -168.535
  N       62.782     134.403    -167.905
  O       66.627     130.173    -167.807
  O       67.790     132.465    -167.816
  H       60.254     131.314    -165.964
  H       68.399     132.029    -168.440
  H       61.206     138.008    -170.933
  H       64.634     133.325    -168.179
  H       61.593     134.545    -166.225
  H       61.023     132.358    -167.868
  H       59.109     138.054    -169.927
  H       63.276     131.473    -167.657
  H       58.887     137.276    -168.400
  H       62.934     131.903    -164.622
  H       65.324     132.061    -164.528
  H       64.941     130.591    -165.455
  P       61.819     129.104    -167.512
  C       59.261     129.465    -167.574
  O       60.512     129.733    -168.193
  O       61.657     127.706    -167.022
  O       62.918     129.264    -168.657
  H       63.711     128.689    -168.527
  H       58.480     129.942    -168.128
  H       59.270     129.843    -166.573
  H       59.092     128.409    -167.555

 6  7  8  9  10  11  12  13  14  15  26  29  33  34 0
 6-311+G(2d,p)
 ****
 36  38  39  40  41 0
 6-311+G(2d,p)
 ****
 1  2  3  4  5  16  17  18  19  20  21  22  23  24  25 0
 3-21G
 ****
 27  28  30  31  32  35  37  42  43  44  45  46  47 0
 3-21G
 ****
 48  49 0
 3-21G
 ****


