%nproc=1
%NoSave
%Mem=1900MB
#P OB98/GEN NMR

erre ene a

0 1
  C     1311.012     256.861     583.808
  O     1309.931     256.056     583.389
  P     1308.825     255.636     584.496
  C     1307.116     257.279     583.430
  O     1307.389     255.931     583.814
  C     1306.130     257.305     582.269
  O     1306.810     256.957     581.039
  C     1304.962     256.341     582.390
  O     1303.918     256.853     583.208
  C     1304.515     256.248     580.934
  O     1303.722     257.407     580.596
  C     1305.853     256.283     580.180
  N     1306.949     253.095     576.332
  C     1306.374     254.330     576.364
  N     1306.100     255.116     577.428
  C     1306.443     254.479     578.572
  C     1307.006     253.208     578.706
  C     1307.257     252.519     577.525
  N     1307.865     251.269     577.493
  N     1307.192     252.920     580.034
  C     1306.800     253.975     580.677
  N     1306.348     254.964     579.839
  O     1308.980     256.793     585.591
  O     1309.007     254.275     585.071
  H     1302.899     257.341     581.120
  H     1308.654     256.462     586.461
  H     1306.115     254.745     575.389
  H     1306.821     254.099     581.752
  H     1305.795     256.863     579.272
  H     1303.889     255.385     580.739
  H     1305.298     255.351     582.723
  H     1305.778     258.352     582.168
  H     1308.033     257.784     583.146
  H     1308.160     250.930     576.612
  H     1308.270     250.925     578.350
  H     1306.688     257.818     584.315
  P     1302.858     255.791     583.781
  C     1304.115     255.855     586.051
  O     1302.879     256.003     585.360
  O     1303.604     254.382     583.563
  O     1301.527     255.847     583.114
  H     1302.963     253.674     583.492
  H     1304.010     256.330     587.046
  H     1304.929     256.353     585.521
  H     1304.358     254.805     586.187
  H     1311.655     257.056     582.975
  H     1311.561     256.351     584.572
  H     1310.639     257.786     584.194

 3  4  5  6  7  8  9  10  11  12  22  25  29  30  31  32 0
 6-311+G(2d,p)
 ****
 33  36  37 0
 6-311+G(2d,p)
 ****
 1  2  13  14  15  16  17  18  19  20  21  23  24  26 0
 3-21G
 ****
 27  28  34  35  38  39  40  41  42  43  44  45  46  47  48 0
 3-21G
 ****


