%nproc=1
%NoSave
%Mem=1900MB
#P OB98/GEN NMR

erre ene a

0 1
  C     -343.272     722.868     623.753
  O     -343.712     723.543     624.917
  H     -342.598     722.062     624.056
  H     -342.740     723.546     623.094
  H     -344.123     722.425     623.221
  P     -344.721     724.776     624.739
  C     -346.880     723.384     624.994
  O     -346.050     724.380     625.557
  C     -348.184     723.290     625.772
  O     -347.966     722.681     627.067
  C     -348.855     724.643     626.040
  O     -349.580     725.054     624.900
  C     -349.746     724.270     627.227
  O     -350.903     723.562     626.759
  C     -348.836     723.352     628.031
  N     -348.394     724.676     632.910
  C     -349.421     724.045     632.250
  N     -350.536     723.766     632.989
  N     -349.402     723.733     630.979
  C     -348.279     724.138     630.353
  C     -347.189     724.783     630.883
  C     -347.206     725.085     632.310
  O     -346.306     725.624     632.933
  N     -346.254     725.107     629.920
  C     -346.761     724.601     628.814
  N     -347.997     724.018     629.024
  O     -344.990     725.216     623.334
  O     -344.077     725.944     625.621
  H     -350.590     722.812     626.213
  H     -343.494     726.508     625.086
  H     -348.480     724.903     633.886
  H     -346.283     724.627     627.839
  H     -349.398     722.558     628.559
  H     -350.112     725.148     627.764
  H     -350.709     724.215     633.873
  H     -348.133     725.391     626.366
  H     -351.306     723.331     632.519
  H     -348.870     722.613     625.228
  H     -346.338     722.425     625.036
  H     -347.095     723.605     623.949
  P     -350.656     726.244     624.995
  C     -349.476     727.568     623.109
  O     -350.676     726.917     623.547
  O     -350.424     727.213     626.131
  O     -352.074     725.512     625.067
  H     -352.358     725.271     625.980
  H     -349.627     727.972     622.130
  H     -348.675     726.859     623.083
  H     -349.231     728.358     623.787

 6  7  8  9  10  11  12  13  14  15  26  29  33  34 0
 6-311+G(2d,p)
 ****
 36  38  39  40  41 0
 6-311+G(2d,p)
 ****
 1  2  3  4  5  16  17  18  19  20  21  22  23  24  25 0
 3-21G
 ****
 27  28  30  31  32  35  37  42  43  44  45  46  47 0
 3-21G
 ****
 48  49 0
 3-21G
 ****


