%nproc=1
%NoSave
%Mem=1900MB
#P OB98/GEN NMR

erre ene a

0 1
  C      104.129     405.928     744.621
  O      104.110     405.335     743.334
  P      102.664     405.074     742.677
  C      103.981     404.560     740.484
  O      102.918     404.215     741.353
  C      103.578     404.264     739.035
  O      102.460     405.076     738.654
  C      104.675     404.542     738.012
  O      105.588     403.463     737.951
  C      103.863     404.739     736.739
  O      103.504     403.466     736.159
  C      102.617     405.473     737.260
  N       99.930     409.751     737.031
  C       99.515     408.426     736.953
  N       98.182     408.226     736.845
  N      100.336     407.403     736.985
  C      101.629     407.760     737.085
  C      102.168     409.034     737.149
  C      101.251     410.150     737.170
  O      101.556     411.327     737.336
  N      103.529     408.997     737.217
  C      103.826     407.700     737.224
  N      102.702     406.916     737.163
  O      102.252     406.515     742.127
  O      101.637     404.497     743.603
  H      104.286     403.057     735.753
  H      101.649     406.972     742.756
  H       99.259     410.497     737.019
  H      104.813     407.295     737.286
  H      101.709     405.171     736.728
  H      104.421     405.276     735.969
  H       97.491     408.960     736.799
  H      105.206     405.475     738.254
  H       97.857     407.271     736.780
  H      103.270     403.203     738.973
  H      104.861     403.963     740.741
  H      104.221     405.618     740.606
  P      107.073     403.704     738.518
  C      106.939     401.446     739.774
  O      107.679     402.275     738.911
  O      106.820     404.424     739.926
  O      107.934     404.547     737.635
  H      107.521     405.087     740.082
  H      107.165     400.396     739.537
  H      105.857     401.607     739.682
  H      107.236     401.642     740.810
  H      105.142     406.047     744.944
  H      103.607     405.299     745.311
  H      103.653     406.885     744.580

 3  4  5  6  7  8  9  10  11  12  23  26  30  31 0
 6-311+G(2d,p)
 ****
 33  35  36  37  38 0
 6-311+G(2d,p)
 ****
 1  2  13  14  15  16  17  18  19  20  21  22  24  25 0
 3-21G
 ****
 27  28  29  32  34  39  40  41  42  43  44  45  46  47  48  49 0
 3-21G
 ****


