%nproc=1
%NoSave
%Mem=1900MB
#P OB98/GEN NMR

erre ene a

0 1
  C     -442.870    -624.346     -25.377
  O     -441.543    -624.171     -25.918
  P     -440.436    -625.299     -25.645
  C     -438.337    -623.790     -25.989
  O     -439.064    -624.935     -26.396
  C     -437.778    -623.020     -27.195
  O     -436.860    -623.864     -27.949
  C     -438.848    -622.529     -28.188
  O     -438.375    -621.295     -28.745
  C     -438.839    -623.615     -29.243
  O     -439.403    -623.200     -30.483
  C     -437.340    -623.920     -29.311
  N     -437.011    -625.205     -29.925
  C     -437.123    -625.319     -31.307
  O     -437.541    -624.422     -32.042
  N     -436.762    -626.529     -31.841
  C     -436.351    -627.631     -31.134
  O     -436.079    -628.699     -31.671
  C     -436.284    -627.459     -29.677
  C     -436.611    -626.275     -29.152
  O     -440.986    -626.524     -26.526
  O     -440.285    -625.718     -24.217
  H     -439.379    -623.965     -31.080
  H     -440.945    -627.346     -26.000
  H     -436.832    -626.619     -32.843
  H     -435.954    -628.311     -29.090
  H     -436.544    -626.129     -28.082
  H     -436.827    -623.118     -29.855
  H     -439.415    -624.474     -28.886
  H     -439.830    -622.384     -27.724
  H     -437.191    -622.175     -26.821
  H     -437.507    -624.097     -25.349
  H     -438.998    -623.136     -25.398
  P     -438.679    -619.929     -27.941
  C     -440.910    -619.248     -29.128
  O     -439.534    -618.992     -28.920
  O     -437.217    -619.253     -27.973
  O     -439.204    -620.126     -26.559
  H     -436.800    -619.305     -28.848
  H     -441.407    -619.528     -28.199
  H     -441.029    -620.044     -29.859
  H     -441.375    -618.341     -29.515
  H     -443.479    -623.510     -25.650
  H     -442.814    -624.414     -24.311
  H     -443.300    -625.244     -25.770

 3  4  5  6  7  8  9  10  11  12  13  23  28  29  30  31  32 0
 6-311+G(2d,p)
 ****
 33  34 0
 6-311+G(2d,p)
 ****
 1  2  14  15  16  17  18  19  20  21  22  24  25  26 0
 3-21G
 ****
 27  35  36  37  38  39  40  41  42  43  44  45 0
 3-21G
 ****


