%nproc=1
%NoSave
%Mem=1900MB
#P OB98/GEN NMR

erre ene a

0 1
  C     -125.684    2620.556     164.352
  O     -125.581    2621.790     163.689
  H     -125.458    2620.710     165.430
  H     -124.982    2619.849     163.952
  H     -126.714    2620.159     164.282
  P     -126.004    2621.877     162.151
  C     -128.040    2623.432     162.673
  O     -127.588    2622.185     162.104
  C     -129.558    2623.581     162.466
  O     -129.843    2623.761     161.078
  C     -130.356    2622.359     162.995
  O     -131.534    2622.815     163.579
  C     -130.668    2621.598     161.692
  O     -131.845    2620.812     161.802
  C     -130.780    2622.742     160.693
  N     -132.699    2620.226     156.724
  C     -133.296    2620.599     157.928
  N     -134.568    2620.196     158.095
  N     -132.675    2621.261     158.868
  C     -131.399    2621.577     158.536
  C     -130.723    2621.288     157.373
  C     -131.372    2620.548     156.350
  O     -130.913    2620.190     155.279
  N     -129.428    2621.818     157.430
  C     -129.360    2622.406     158.623
  N     -130.512    2622.297     159.311
  O     -125.574    2620.735     161.303
  O     -125.364    2623.251     161.646
  H     -132.031    2620.433     160.897
  H     -124.586    2623.090     161.069
  H     -133.195    2619.724     156.045
  H     -128.479    2622.910     159.008
  H     -131.783    2623.180     160.677
  H     -129.818    2620.948     161.410
  H     -135.115    2619.696     157.410
  H     -129.758    2621.742     163.679
  H     -135.043    2620.445     158.960
  H     -129.865    2624.483     163.005
  H     -127.508    2624.209     162.136
  H     -127.756    2623.451     163.717
  P     -131.452    2623.916     164.781
  C     -132.495    2625.860     163.425
  O     -131.323    2625.350     164.092
  O     -130.453    2623.598     165.842
  O     -132.940    2623.918     165.368
  H     -132.895    2624.111     166.321
  H     -132.278    2626.821     163.008
  H     -133.296    2625.949     164.129
  H     -132.781    2625.188     162.643

 6  7  8  9  10  11  12  13  14  15  26  29  33  34 0
 6-311+G(2d,p)
 ****
 36  38  39  40  41 0
 6-311+G(2d,p)
 ****
 1  2  3  4  5  16  17  18  19  20  21  22  23  24  25 0
 3-21G
 ****
 27  28  30  31  32  35  37  42  43  44  45  46  47 0
 3-21G
 ****
 48  49 0
 3-21G
 ****


