%nproc=1
%NoSave
%Mem=1900MB
#P OB98/GEN NMR

erre ene a

0 1
  C      721.573    1409.264     816.332
  O      720.506    1409.558     817.207
  H      722.364    1408.771     816.901
  H      721.976    1410.187     815.901
  H      721.259    1408.591     815.531
  P      719.159    1410.101     816.515
  C      717.827    1407.899     816.916
  O      717.942    1409.280     817.196
  C      717.101    1407.177     818.071
  O      717.964    1407.168     819.249
  C      715.795    1407.840     818.492
  O      714.731    1407.439     817.663
  C      715.656    1407.263     819.897
  O      715.172    1405.897     819.809
  C      717.092    1407.299     820.397
  N      718.558    1409.285     824.844
  C      718.291    1407.951     824.512
  N      718.399    1407.046     825.490
  N      717.910    1407.598     823.293
  C      717.834    1408.604     822.417
  C      718.076    1409.962     822.645
  C      718.487    1410.366     823.967
  O      718.755    1411.486     824.318
  N      717.881    1410.691     821.504
  C      717.507    1409.794     820.588
  N      717.450    1408.527     821.115
  O      719.223    1409.505     815.026
  O      718.999    1411.585     816.491
  H      715.077    1405.564     820.717
  H      718.844    1410.147     814.405
  H      718.828    1409.514     825.776
  H      717.281    1410.029     819.569
  H      717.328    1406.465     821.071
  H      714.922    1407.796     820.504
  H      718.638    1407.295     826.460
  H      715.910    1408.943     818.568
  H      718.225    1406.068     825.258
  H      716.942    1406.134     817.758
  H      718.821    1407.472     816.787
  H      717.264    1407.767     815.972
  P      713.917    1408.634     816.883
  C      715.300    1408.387     814.685
  O      714.017    1408.249     815.326
  O      714.891    1409.886     817.042
  O      712.561    1408.890     817.406
  H      714.365    1410.712     816.961
  H      715.219    1408.098     813.658
  H      716.014    1407.759     815.177
  H      715.621    1409.406     814.744

 6  7  8  9  10  11  12  13  14  15  26  29  33  34 0
 6-311+G(2d,p)
 ****
 36  38  39  40  41 0
 6-311+G(2d,p)
 ****
 1  2  3  4  5  16  17  18  19  20  21  22  23  24  25 0
 3-21G
 ****
 27  28  30  31  32  35  37  42  43  44  45  46  47 0
 3-21G
 ****
 48  49 0
 3-21G
 ****


