%nproc=1
%NoSave
%Mem=1900MB
#P OB98/GEN NMR

erre ene a

0 1
  C      656.594     -52.752     394.390
  O      656.998     -52.232     393.136
  H      657.036     -53.741     394.531
  H      656.957     -52.090     395.183
  H      655.504     -52.811     394.453
  P      656.325     -52.866     391.825
  C      653.987     -51.759     391.593
  O      655.358     -51.735     391.216
  C      653.312     -50.423     391.285
  O      653.923     -49.393     392.113
  C      653.447     -49.976     389.816
  O      652.221     -49.355     389.420
  C      654.539     -48.911     389.870
  O      654.450     -47.974     388.807
  C      654.295     -48.302     391.253
  N      657.090     -44.083     390.699
  C      655.842     -44.400     390.303
  N      655.147     -45.531     390.544
  C      655.858     -46.370     391.320
  C      657.146     -46.186     391.797
  C      657.777     -44.987     391.439
  N      659.094     -44.700     391.775
  N      657.551     -47.307     392.515
  C      656.533     -48.148     392.443
  N      655.488     -47.628     391.728
  O      655.305     -53.939     392.443
  O      657.270     -53.489     390.852
  H      655.155     -47.307     388.905
  H      655.764     -54.784     392.579
  H      655.330     -43.637     389.717
  H      656.512     -49.147     392.861
  H      653.474     -47.569     391.251
  H      655.519     -49.402     389.824
  H      653.692     -50.786     389.120
  H      652.261     -50.478     391.575
  H      653.915     -51.957     392.671
  H      659.491     -43.862     391.390
  H      659.647     -45.399     392.238
  H      653.480     -52.574     391.057
  P      651.499     -49.911     388.093
  C      649.942     -51.608     389.332
  O      650.044     -50.457     388.500
  O      652.322     -51.249     387.774
  O      651.518     -48.948     386.945
  H      652.364     -51.391     386.806
  H      648.910     -51.834     389.504
  H      650.426     -51.416     390.267
  H      650.413     -52.439     388.850

 6  7  8  9  10  11  12  13  14  15  25  28  32  33  34  35 0
 6-311+G(2d,p)
 ****
 36  39  40 0
 6-311+G(2d,p)
 ****
 1  2  3  4  5  16  17  18  19  20  21  22  23  24 0
 3-21G
 ****
 26  27  29  30  31  37  38  41  42  43  44  45  46  47 0
 3-21G
 ****
 48 0
 3-21G
 ****


