%nproc=1
%NoSave
%Mem=1900MB
#P OB98/GEN NMR

erre ene a

0 1
  C        0.441     273.269     -25.192
  O       -0.651     272.443     -25.541
  H        0.112     274.311     -25.222
  H        1.264     273.141     -25.903
  H        0.781     273.039     -24.179
  P       -0.396     270.864     -25.685
  C        0.916     269.427     -27.400
  O        0.482     270.727     -27.027
  C        2.094     269.521     -28.367
  O        3.254     270.086     -27.717
  C        2.577     268.182     -28.921
  O        1.712     267.636     -29.904
  C        3.919     268.603     -29.500
  O        3.709     269.308     -30.738
  C        4.432     269.565     -28.397
  N        5.325     268.909     -27.442
  C        6.687     268.864     -27.779
  O        7.082     269.359     -28.837
  N        7.558     268.227     -26.933
  C        7.111     267.667     -25.847
  N        8.015     267.006     -25.069
  C        5.694     267.704     -25.445
  C        4.865     268.329     -26.279
  O       -1.606     269.990     -25.622
  O        0.690     270.530     -24.555
  H        4.584     269.622     -31.035
  H        0.873     269.560     -24.596
  H        5.377     267.215     -24.540
  H        3.802     268.386     -26.059
  H        4.953     270.421     -28.841
  H        4.582     267.760     -29.713
  H        2.754     267.466     -28.112
  H        1.807     270.212     -29.172
  H        8.972     266.967     -25.399
  H        0.072     268.902     -27.857
  H        7.714     266.325     -24.379
  H        1.243     268.871     -26.512
  P        1.786     266.052     -30.169
  C        3.418     264.480     -31.463
  O        3.160     265.779     -30.954
  O        0.664     265.828     -31.286
  O        1.583     265.179     -28.968
  H       -0.190     265.568     -30.882
  H        4.369     264.472     -31.954
  H        2.653     264.212     -32.162
  H        3.427     263.776     -30.657

 6  7  8  9  10  11  12  13  14  15  16  26  30  31  32  33  35 0
 6-311+G(2d,p)
 ****
 37  38 0
 6-311+G(2d,p)
 ****
 1  2  3  4  5  17  18  19  20  21  22  23  24  25 0
 3-21G
 ****
 27  28  29  34  36  39  40  41  42  43  44  45  46 0
 3-21G
 ****


