%nproc=1
%NoSave
%Mem=1900MB
#P OB98/GEN NMR

erre ene a

0 1
  C      -42.732      26.644      52.491
  O      -43.309      25.382      52.781
  P      -42.701      24.551      54.014
  C      -41.329      23.133      52.326
  O      -41.316      23.914      53.512
  C      -39.942      22.553      52.040
  O      -39.027      23.647      51.749
  C      -39.336      21.746      53.199
  O      -38.573      20.687      52.610
  C      -38.434      22.770      53.863
  O      -37.460      22.210      54.727
  C      -37.894      23.495      52.634
  N      -33.697      26.390      52.270
  C      -33.987      25.161      51.788
  N      -35.131      24.456      51.918
  C      -36.038      25.153      52.624
  C      -35.881      26.404      53.193
  C      -34.642      27.035      52.992
  N      -34.346      28.287      53.494
  N      -37.022      26.785      53.868
  C      -37.856      25.778      53.711
  N      -37.314      24.779      52.949
  O      -43.673      23.286      54.110
  O      -42.627      25.303      55.307
  H      -36.956      22.922      55.168
  H      -43.845      23.042      55.039
  H      -33.196      24.679      51.222
  H      -38.849      25.716      54.133
  H      -37.136      22.903      52.108
  H      -39.049      23.446      54.470
  H      -40.089      21.315      53.867
  H      -40.006      21.933      51.139
  H      -41.618      23.762      51.479
  H      -33.375      28.561      53.467
  H      -34.972      28.661      54.196
  H      -42.074      22.337      52.424
  P      -38.638      19.225      53.268
  C      -36.361      19.529      54.419
  O      -37.753      19.362      54.602
  O      -37.646      18.415      52.307
  O      -39.997      18.631      53.404
  H      -36.795      18.876      52.199
  H      -35.900      19.706      55.394
  H      -36.162      20.387      53.771
  H      -35.931      18.622      53.985
  H      -43.232      27.081      51.652
  H      -41.695      26.518      52.261
  H      -42.833      27.286      53.341

 3  4  5  6  7  8  9  10  11  12  22  25  29  30  31  32 0
 6-311+G(2d,p)
 ****
 33  36  37 0
 6-311+G(2d,p)
 ****
 1  2  13  14  15  16  17  18  19  20  21  23  24  26 0
 3-21G
 ****
 27  28  34  35  38  39  40  41  42  43  44  45  46  47  48 0
 3-21G
 ****


