%nproc=1
%NoSave
%Mem=1900MB
#P OB98/GEN NMR

erre ene a

0 1
  C      124.057    -143.850     270.957
  O      122.676    -143.828     271.289
  P      122.173    -142.673     272.287
  C      119.834    -143.697     271.825
  O      120.722    -143.140     272.788
  C      118.970    -144.780     272.457
  O      119.777    -145.938     272.748
  C      118.330    -144.389     273.781
  O      117.157    -143.610     273.594
  C      117.992    -145.755     274.361
  O      116.760    -146.233     273.792
  C      119.174    -146.617     273.880
  N      120.605    -149.441     277.832
  C      119.489    -149.547     277.027
  N      118.647    -150.568     277.297
  N      119.219    -148.725     276.047
  C      120.169    -147.778     275.866
  C      121.318    -147.569     276.597
  C      121.577    -148.455     277.713
  O      122.516    -148.371     278.500
  N      122.042    -146.516     276.102
  C      121.355    -146.111     275.051
  N      120.195    -146.826     274.886
  O      121.847    -141.457     271.297
  O      123.146    -142.283     273.347
  H      116.050    -145.645     274.115
  H      121.919    -140.610     271.779
  H      120.772    -150.111     278.561
  H      121.658    -145.311     274.391
  H      118.832    -147.595     273.521
  H      117.860    -145.737     275.446
  H      118.864    -151.304     277.950
  H      119.049    -143.880     274.431
  H      117.841    -150.683     276.696
  H      118.202    -145.074     271.729
  H      120.417    -144.136     271.009
  H      119.209    -142.896     271.416
  P      116.488    -142.988     274.915
  C      115.775    -140.952     273.467
  O      115.381    -141.960     274.382
  O      117.640    -142.048     275.503
  O      116.025    -144.003     275.904
  H      117.531    -141.943     276.467
  H      116.535    -141.317     272.772
  H      116.166    -140.093     274.020
  H      114.899    -140.637     272.893
  H      124.251    -144.664     270.290
  H      124.636    -143.973     271.848
  H      124.324    -142.929     270.482

 3  4  5  6  7  8  9  10  11  12  23  26  30  31  33  0
 6-311+G(2d,p)
 ****
 35  36  37  38 0
 6-311+G(2d,p)
 ****
 1  2  13  14  15  16  17  18  19  20  21  22  24  25  27  28  29 0
 3-21G
 ****
 32  34  39  40  41  42  43  44  45  46  47  48  49 0
 3-21G
 ****


