%nproc=1
%NoSave
%Mem=1900MB
#P OB98/GEN NMR

erre ene a

0 1
  C     -461.470     -77.199    -492.142
  O     -460.968     -77.940    -491.044
  P     -459.454     -78.454    -491.045
  C     -459.101     -78.455    -488.498
  O     -458.717     -77.876    -489.744
  C     -458.579     -77.619    -487.338
  O     -459.263     -76.347    -487.273
  C     -458.792     -78.254    -485.965
  O     -457.923     -79.340    -485.742
  C     -458.582     -77.052    -485.052
  O     -457.183     -76.809    -484.848
  C     -459.208     -75.910    -485.892
  N     -460.524     -75.521    -485.403
  C     -460.550     -74.804    -484.200
  O     -459.510     -74.599    -483.574
  N     -461.756     -74.337    -483.741
  C     -462.847     -74.666    -484.350
  N     -464.005     -74.126    -483.886
  C     -462.881     -75.558    -485.535
  C     -461.686     -75.924    -486.013
  O     -458.714     -78.251    -492.329
  O     -459.582     -80.019    -490.707
  H     -459.064     -80.525    -491.368
  H     -456.873     -77.485    -484.215
  H     -463.825     -75.859    -485.966
  H     -461.614     -76.557    -486.888
  H     -458.557     -75.031    -485.882
  H     -459.038     -77.191    -484.067
  H     -459.837     -78.587    -485.885
  H     -457.509     -77.425    -487.504
  H     -463.950     -73.509    -483.085
  H     -458.689     -79.466    -488.445
  H     -464.846     -74.050    -484.459
  H     -460.198     -78.532    -488.454
  P     -458.603     -80.772    -485.488
  C     -457.019     -81.885    -487.204
  O     -458.349     -81.662    -486.792
  O     -460.174     -80.452    -485.536
  O     -458.223     -81.419    -484.194
  H     -460.642     -81.008    -484.889
  H     -456.989     -82.754    -487.859
  H     -456.354     -82.063    -486.350
  H     -456.660     -81.012    -487.768
  H     -462.494     -76.944    -491.962
  H     -461.400     -77.789    -493.032
  H     -460.896     -76.304    -492.261

 3  4  5  6  7  8  9  10  11  12  13  24  27  28  29  30  32 0
 6-311+G(2d,p)
 ****
 34  35 0
 6-311+G(2d,p)
 ****
 1  2  14  15  16  17  18  19  20  21  22  23  25  26 0
 3-21G
 ****
 31  33  36  37  38  39  40  41  42  43  44  45  46 0
 3-21G
 ****


