%nproc=1
%NoSave
%Mem=1900MB
#P OB98/GEN NMR

erre ene a

0 1
  C      313.035     526.694     361.324
  O      314.050     527.145     360.450
  H      313.036     527.331     362.214
  H      313.233     525.661     361.631
  H      312.058     526.759     360.844
  P      314.263     526.372     359.056
  C      316.827     526.183     359.426
  O      315.780     526.730     358.637
  C      318.177     526.519     358.803
  O      318.353     525.859     357.534
  C      318.406     528.000     358.503
  O      318.635     528.792     359.656
  C      319.631     527.902     357.612
  O      320.794     527.646     358.409
  C      319.260     526.675     356.735
  N      318.631     527.050     355.468
  C      319.476     527.619     354.501
  O      320.666     527.786     354.728
  N      318.924     528.012     353.298
  C      317.652     527.864     353.095
  N      317.165     528.280     351.896
  C      316.725     527.299     354.096
  C      317.280     526.899     355.245
  O      313.227     526.619     358.006
  O      314.405     524.833     359.471
  H      321.477     527.287     357.809
  H      314.522     524.308     358.643
  H      315.671     527.231     353.889
  H      316.664     526.486     356.037
  H      320.152     526.069     356.527
  H      319.820     528.813     357.044
  H      317.568     528.410     357.906
  H      318.958     526.131     359.480
  H      317.815     528.679     351.223
  H      316.676     525.104     359.487
  H      316.175     528.288     351.670
  H      316.797     526.604     360.434
  P      317.975     530.263     359.677
  C      320.131     531.099     360.903
  O      318.711     531.067     360.852
  O      316.504     529.987     360.244
  O      317.960     530.963     358.356
  H      315.854     529.945     359.512
  H      320.445     531.677     361.747
  H      320.510     531.543     360.006
  H      320.507     530.101     360.994

 6  7  8  9  10  11  12  13  14  15  16  26  30  31  32  33  35 0
 6-311+G(2d,p)
 ****
 37  38 0
 6-311+G(2d,p)
 ****
 1  2  3  4  5  17  18  19  20  21  22  23  24  25 0
 3-21G
 ****
 27  28  29  34  36  39  40  41  42  43  44  45  46 0
 3-21G
 ****


