%nproc=1
%NoSave
%Mem=1900MB
#P OB98/GEN NMR

erre ene a

0 1
  C      320.084    -482.899     335.648
  O      320.656    -483.283     334.415
  H      320.402    -483.606     336.417
  H      318.995    -482.929     335.575
  H      320.412    -481.896     335.930
  P      320.452    -482.294     333.165
  C      321.183    -482.489     330.679
  O      320.725    -483.165     331.842
  C      321.450    -483.489     329.551
  O      322.612    -484.285     329.900
  C      320.282    -484.444     329.294
  O      320.180    -484.664     327.882
  C      320.712    -485.732     329.977
  O      320.096    -486.888     329.412
  C      322.237    -485.671     329.813
  N      322.916    -486.480     330.824
  C      323.042    -487.849     330.552
  O      322.594    -488.317     329.503
  N      323.631    -488.656     331.489
  C      323.976    -488.166     332.640
  N      324.524    -489.022     333.540
  C      323.794    -486.743     332.997
  C      323.270    -485.965     332.049
  O      321.728    -481.332     333.238
  O      319.168    -481.536     333.152
  H      320.094    -486.789     328.437
  H      321.520    -480.440     332.907
  H      324.073    -486.382     333.978
  H      323.093    -484.909     332.225
  H      322.530    -486.035     328.814
  H      320.444    -485.687     331.035
  H      319.326    -484.077     329.675
  H      321.706    -482.925     328.643
  H      324.616    -489.993     333.269
  H      322.115    -481.967     330.918
  H      324.788    -488.761     334.483
  H      320.432    -481.751     330.369
  P      318.886    -484.067     327.153
  C      318.622    -482.606     325.016
  O      319.282    -483.698     325.641
  O      318.686    -482.644     327.853
  O      317.666    -484.928     327.289
  H      317.909    -482.667     328.440
  H      318.993    -482.488     324.019
  H      318.806    -481.711     325.573
  H      317.569    -482.796     324.985

 6  7  8  9  10  11  12  13  14  15  16  26  30  31  32  33  35 0
 6-311+G(2d,p)
 ****
 37  38 0
 6-311+G(2d,p)
 ****
 1  2  3  4  5  17  18  19  20  21  22  23  24  25 0
 3-21G
 ****
 27  28  29  34  36  39  40  41  42  43  44  45  46 0
 3-21G
 ****


