%nproc=1
%NoSave
%Mem=1900MB
#P OB98/GEN NMR

erre ene a

0 1
  C       91.448     192.929    -221.924
  O       92.277     192.039    -222.645
  H       90.765     193.416    -222.625
  H       92.042     193.697    -221.422
  H       90.856     192.377    -221.187
  P       93.535     191.394    -221.883
  C       93.271     188.836    -222.127
  O       93.852     190.024    -222.661
  C       93.796     187.595    -222.853
  O       93.441     187.651    -224.251
  C       95.310     187.466    -222.832
  O       95.847     187.172    -221.559
  C       95.577     186.523    -223.997
  O       95.483     185.147    -223.643
  C       94.433     186.892    -224.973
  N       94.924     187.613    -226.143
  C       95.480     186.829    -227.147
  O       95.585     185.604    -227.075
  N       95.956     187.504    -228.237
  C       95.976     188.859    -228.389
  O       96.456     189.410    -229.375
  C       95.400     189.638    -227.282
  C       94.906     188.990    -226.223
  O       93.381     191.225    -220.400
  O       94.756     192.337    -222.299
  H       94.550     184.975    -223.407
  H       95.526     192.210    -221.693
  H       96.352     186.952    -228.980
  H       95.401     190.716    -227.368
  H       94.476     189.541    -225.392
  H       93.930     185.983    -225.327
  H       96.573     186.678    -224.417
  H       95.737     188.436    -223.120
  H       93.317     186.711    -222.417
  H       92.187     188.903    -222.268
  H       93.485     188.770    -221.055
  P       97.291     187.658    -221.081
  C       97.200     187.333    -218.507
  O       97.684     186.844    -219.753
  O       97.555     189.129    -221.124
  O       98.241     186.968    -222.193
  H       98.990     187.571    -222.353
  H       97.539     186.695    -217.718
  H       96.130     187.347    -218.521
  H       97.567     188.325    -218.346

 6  7  8  9  10  11  12  13  14  15  16  26  31  32  33  34  35 0
 6-311+G(2d,p)
 ****
 36  37 0
 6-311+G(2d,p)
 ****
 1  2  3  4  5  17  18  19  20  21  22  23  24  25 0
 3-21G
 ****
 27  28  29  30  38  39  40  41  42  43  44  45 0
 3-21G
 ****


