%nproc=1
%NoSave
%Mem=1900MB
#P OB98/GEN NMR

erre ene a

0 1
  C      215.474     -92.053    -221.813
  O      214.489     -91.090    -222.137
  H      215.906     -91.798    -220.842
  H      216.266     -92.046    -222.566
  H      215.026     -93.047    -221.750
  P      213.720     -91.298    -223.529
  C      213.770     -88.948    -224.659
  O      213.043     -89.886    -223.877
  C      214.348     -87.841    -223.767
  O      215.550     -88.347    -223.116
  C      214.756     -86.573    -224.535
  O      214.623     -85.454    -223.639
  C      216.228     -86.837    -224.807
  O      216.887     -85.662    -225.215
  C      216.626     -87.445    -223.463
  N      221.637     -87.076    -224.424
  C      220.651     -86.151    -224.418
  N      219.343     -86.322    -224.139
  C      219.087     -87.603    -223.824
  C      219.987     -88.654    -223.778
  C      221.323     -88.354    -224.102
  N      222.327     -89.296    -224.118
  N      219.350     -89.828    -223.414
  C      218.088     -89.487    -223.242
  N      217.882     -88.157    -223.486
  O      212.480     -92.227    -223.129
  O      214.535     -91.893    -224.629
  H      217.830     -85.844    -225.415
  H      212.699     -93.163    -223.299
  H      220.955     -85.138    -224.673
  H      217.288     -90.160    -222.956
  H      216.689     -86.684    -222.676
  H      216.349     -87.565    -225.616
  H      214.156     -86.395    -225.432
  H      213.630     -87.613    -222.971
  H      213.089     -88.511    -225.398
  H      214.584     -89.459    -225.178
  H      223.255     -89.000    -224.375
  H      222.103     -90.255    -223.897
  P      213.539     -84.314    -223.967
  C      214.982     -82.396    -222.921
  O      213.747     -83.097    -222.943
  O      212.182     -84.977    -223.423
  O      213.402     -83.943    -225.408
  H      211.422     -84.629    -223.925
  H      214.940     -81.623    -222.182
  H      215.163     -81.961    -223.882
  H      215.773     -83.075    -222.682

 6  7  8  9  10  11  12  13  14  15  25  28  32  33  34  35 0
 6-311+G(2d,p)
 ****
 36  37  40 0
 6-311+G(2d,p)
 ****
 1  2  3  4  5  16  17  18  19  20  21  22  23  24 0
 3-21G
 ****
 26  27  29  30  31  38  39 41  42  43  44  45  46  47  48 0
 3-21G
 ****


