%nproc=1
%NoSave
%Mem=1900MB
#P OB98/GEN NMR

erre ene a

0 1
  C     1011.096     -33.367     393.602
  O     1010.944     -32.127     394.302
  P     1011.505     -32.057     395.805
  C     1012.994     -29.938     395.419
  O     1012.929     -31.329     395.699
  C     1013.796     -29.700     394.138
  O     1013.071     -30.196     392.983
  C     1014.069     -28.238     393.841
  O     1015.082     -27.715     394.692
  C     1014.450     -28.307     392.361
  O     1015.816     -28.721     392.220
  C     1013.504     -29.409     391.845
  N     1012.368     -28.885     391.098
  C     1012.676     -28.226     389.909
  O     1013.827     -28.060     389.511
  N     1011.606     -27.741     389.205
  C     1010.300     -27.824     389.578
  O     1009.380     -27.376     388.895
  C     1010.039     -28.486     390.860
  C     1011.068     -28.980     391.558
  O     1011.861     -33.593     396.078
  O     1010.534     -31.452     396.764
  H     1012.190     -34.049     395.282
  H     1016.364     -27.991     392.580
  H     1011.806     -27.272     388.338
  H     1009.012     -28.548     391.196
  H     1010.896     -29.474     392.511
  H     1014.049     -30.097     391.192
  H     1014.344     -27.339     391.859
  H     1013.151     -27.652     393.960
  H     1014.741     -30.257     394.219
  H     1013.480     -29.408     396.246
  H     1011.979     -29.548     395.325
  P     1014.601     -27.080     396.088
  C     1015.394     -28.945     397.734
  O     1014.324     -28.308     397.073
  O     1013.136     -26.550     395.699
  O     1015.518     -26.020     396.609
  H     1012.633     -27.192     395.180
  H     1014.999     -29.494     398.596
  H     1016.138     -28.227     398.085
  H     1015.873     -29.658     397.049
  H     1010.682     -33.275     392.620
  H     1010.584     -34.142     394.134
  H     1012.135     -33.611     393.530

 3  4  5  6  7  8  9  10  11  12  13  24  28  29  30  31  32 0
 6-311+G(2d,p)
 ****
 33  34 0
 6-311+G(2d,p)
 ****
 1  2  14  15  16  17  18  19  20  21  22  23  25  26  27 0
 3-21G
 ****
 35  36  37  38  39  40  41  42  43  44  45 0
 3-21G
 ****


