%nproc=1
%NoSave
%Mem=1900MB
#P OB98/GEN NMR

erre ene a

0 1
  C      387.872    -485.043    -541.171
  O      387.534    -486.341    -540.704
  P      388.731    -487.238    -540.119
  C      389.045    -486.195    -537.743
  O      389.520    -486.312    -539.077
  C      390.193    -486.448    -536.766
  O      390.711    -487.792    -536.945
  C      391.377    -485.509    -536.930
  O      391.137    -484.283    -536.270
  C      392.508    -486.333    -536.301
  O      392.485    -486.222    -534.869
  C      392.154    -487.759    -536.752
  N      395.600    -490.903    -538.697
  C      395.293    -490.625    -537.377
  N      395.971    -491.327    -536.438
  N      394.398    -489.748    -537.007
  C      393.807    -489.117    -538.051
  C      394.034    -489.290    -539.396
  C      394.993    -490.302    -539.788
  O      395.228    -490.653    -540.943
  N      393.266    -488.452    -540.156
  C      392.544    -487.796    -539.267
  N      392.820    -488.175    -537.976
  O      389.731    -487.362    -541.364
  O      388.320    -488.564    -539.573
  H      392.314    -485.294    -534.624
  H      389.602    -488.221    -541.820
  H      396.289    -491.598    -538.925
  H      391.800    -487.051    -539.499
  H      392.397    -488.502    -535.989
  H      393.498    -485.987    -536.629
  H      396.691    -491.997    -536.652
  H      391.593    -485.343    -537.995
  H      395.761    -491.130    -535.469
  H      389.785    -486.385    -535.747
  H      388.256    -486.923    -537.575
  H      388.635    -485.190    -537.596
  P      392.001    -483.009    -536.721
  C      389.830    -481.790    -537.475
  O      391.141    -482.217    -537.820
  O      393.194    -483.656    -537.577
  O      392.523    -482.178    -535.596
  H      394.019    -483.151    -537.424
  H      389.600    -480.882    -538.043
  H      389.743    -481.572    -536.405
  H      389.117    -482.567    -537.742
  H      386.992    -484.553    -541.532
  H      388.586    -485.124    -541.964
  H      388.293    -484.474    -540.369

 3  4  5  6  7  8  9  10  11  12  23  26  30  31 0
 6-311+G(2d,p)
 ****
 33  35  36  37  38 0
 6-311+G(2d,p)
 ****
 1  2  13  14  15  16  17  18  19  20  21  22  24  25 0
 3-21G
 ****
 27  28  29  32  34  39  40  41  42  43  44  45  46  47  48  49 0
 3-21G
 ****


