%nproc=1
%NoSave
%Mem=1900MB
#P OB98/GEN NMR

erre ene a

0 1
  C     -124.237     109.874     249.938
  O     -124.237     111.262     250.207
  H     -124.165     109.333     250.885
  H     -123.377     109.611     249.316
  H     -125.165     109.587     249.437
  P     -124.362     112.236     248.937
  C     -121.792     112.453     248.720
  O     -123.000     112.000     248.124
  C     -121.038     113.374     247.763
  O     -119.860     113.906     248.394
  C     -120.552     112.693     246.488
  O     -121.601     112.591     245.539
  C     -119.477     113.668     246.038
  O     -120.087     114.796     245.379
  C     -118.850     114.117     247.371
  N     -113.956     113.144     246.169
  C     -114.942     113.760     245.483
  N     -116.229     113.944     245.847
  C     -116.464     113.415     247.058
  C     -115.556     112.758     247.874
  C     -114.243     112.637     247.390
  N     -113.236     112.017     248.098
  N     -116.158     112.348     249.046
  C     -117.394     112.800     248.962
  N     -117.639     113.420     247.762
  O     -124.717     113.651     249.239
  O     -125.432     111.441     248.048
  H     -119.376     115.294     244.931
  H     -125.275     110.483     248.101
  H     -114.661     114.161     244.513
  H     -118.141     112.718     249.741
  H     -118.607     115.185     247.366
  H     -118.783     113.221     245.323
  H     -120.090     111.724     246.703
  H     -121.691     114.222     247.528
  H     -121.159     111.603     248.995
  H     -112.376     111.824     247.609
  H     -113.481     111.533     248.949
  H     -122.059     112.995     249.633
  P     -121.363     111.853     244.135
  C     -120.716     113.906     242.731
  O     -120.256     112.711     243.350
  O     -122.599     111.572     243.353
  O     -120.581     110.512     244.513
  H     -120.886     109.772     243.954
  H     -119.898     114.392     242.241
  H     -121.125     114.558     243.474
  H     -121.471     113.667     242.012

 6  7  8  9  10  11  12  13  14  15  25  28  32  33  34  35 0
 6-311+G(2d,p)
 ****
 36  39  40 0
 6-311+G(2d,p)
 ****
 1  2  3  4  5  16  17  18  19  20  21  22  23  24 0
 3-21G
 ****
 26  27  29  30  31  37  38  41  42  43  44  45  46  47 0
 3-21G
 ****
 48 0
 3-21G
 ****


