%nproc=1
%NoSave
%Mem=1900MB
#P OB98/GEN NMR

erre ene a

0 1
  C     -144.319     155.793      12.848
  O     -144.315     156.740      13.892
  P     -142.968     157.517      14.283
  C     -144.552     159.542      14.420
  O     -143.428     158.883      14.993
  C     -144.587     161.001      14.863
  O     -143.303     161.643      14.648
  C     -145.570     161.864      14.086
  O     -146.944     161.583      14.241
  C     -145.102     163.260      14.461
  O     -145.607     163.654      15.735
  C     -143.565     163.063      14.524
  N     -142.893     163.640      13.363
  C     -142.760     165.023      13.361
  O     -143.171     165.748      14.266
  N     -142.158     165.566      12.258
  C     -141.728     164.877      11.160
  O     -141.239     165.432      10.185
  C     -141.911     163.419      11.212
  C     -142.476     162.874      12.293
  O     -141.992     157.695      13.170
  O     -142.400     156.670      15.518
  H     -145.137     163.131      16.413
  H     -142.997     156.618      16.285
  H     -142.063     166.568      12.230
  H     -141.570     162.843      10.362
  H     -142.623     161.800      12.352
  H     -143.158     163.537      15.426
  H     -145.435     164.010      13.735
  H     -145.364     161.735      13.015
  H     -144.785     161.029      15.937
  H     -145.466     159.044      14.759
  H     -144.509     159.456      13.329
  P     -148.065     162.066      13.203
  C     -149.837     160.650      14.456
  O     -149.499     161.902      13.899
  O     -147.925     161.593      11.795
  O     -147.866     163.661      13.238
  H     -148.096     164.028      12.364
  H     -150.858     160.705      14.844
  H     -149.164     160.406      15.283
  H     -149.795     159.866      13.695
  H     -145.303     155.386      12.739
  H     -143.631     155.006      13.077
  H     -144.027     156.268      11.935

 3  4  5  6  7  8  9  10  11  12  13  23  28  29  30  31  32 0
 6-311+G(2d,p)
 ****
 33  34 0
 6-311+G(2d,p)
 ****
 1  2  14  15  16  17  18  19  20  21  22  24  25  26  27 0
 3-21G
 ****
 35  36  37  38  39  40  41  42  43  44  45 0
 3-21G
 ****


