%nproc=1
%NoSave
%Mem=1900MB
#P OB98/GEN NMR

erre ene a

0 1
  C     -178.397     953.301     401.662
  O     -178.074     952.199     402.485
  H     -177.913     953.170     400.692
  H     -178.031     954.226     402.118
  H     -179.481     953.364     401.510
  P     -178.853     952.090     403.884
  C     -179.857     949.750     403.363
  O     -179.002     950.522     404.199
  C     -179.233     948.379     403.109
  O     -178.232     948.464     402.063
  C     -178.539     947.761     404.321
  O     -179.467     947.121     405.182
  C     -177.634     946.758     403.631
  O     -178.405     945.602     403.232
  C     -177.160     947.526     402.396
  N     -172.221     947.185     403.491
  C     -173.180     946.185     403.389
  N     -172.768     944.927     403.614
  N     -174.433     946.416     403.090
  C     -174.708     947.732     402.899
  C     -173.847     948.804     402.981
  C     -172.457     948.537     403.298
  O     -171.569     949.378     403.384
  N     -174.484     949.979     402.715
  C     -175.743     949.630     402.485
  N     -175.932     948.277     402.597
  O     -180.346     952.535     403.519
  O     -178.296     952.923     404.995
  H     -178.833     945.259     404.031
  H     -180.725     953.031     404.268
  H     -171.275     946.956     403.732
  H     -176.543     950.322     402.248
  H     -177.003     946.889     401.525
  H     -176.835     946.397     404.287
  H     -171.829     944.687     403.890
  H     -177.928     948.502     404.845
  H     -173.450     944.185     403.498
  H     -180.024     947.715     402.737
  H     -179.981     950.277     402.413
  H     -180.826     949.640     403.847
  P     -179.385     947.474     406.747
  C     -181.838     946.768     407.224
  O     -180.462     946.514     407.461
  O     -180.063     948.924     406.818
  O     -178.017     947.477     407.324
  H     -179.771     949.392     407.623
  H     -182.430     946.056     407.760
  H     -182.041     946.684     406.177
  H     -182.081     947.756     407.557

 6  7  8  9  10  11  12  13  14  15  26  29  33  34 0
 6-311+G(2d,p)
 ****
 36  38  39  40  41 0
 6-311+G(2d,p)
 ****
 1  2  3  4  5  16  17  18  19  20  21  22  23  24  25 0
 3-21G
 ****
 27  28  30  31  32  35  37  42  43  44  45  46  47 0
 3-21G
 ****
 48  49 0
 3-21G
 ****


