%nproc=1
%NoSave
%Mem=1900MB
#P OB98/GEN NMR

erre ene a

0 1
  C      227.797     -18.132      78.374
  O      227.188     -19.383      78.122
  H      228.746     -18.090      77.835
  H      227.990     -18.018      79.444
  H      227.154     -17.321      78.022
  P      225.764     -19.636      78.816
  C      224.273     -19.044      76.761
  O      224.763     -20.051      77.634
  C      223.504     -19.676      75.594
  O      222.837     -18.616      74.847
  C      224.399     -20.428      74.596
  O      223.614     -21.475      74.002
  C      224.678     -19.352      73.560
  O      225.215     -19.909      72.383
  C      223.294     -18.715      73.479
  N      223.471     -16.198      69.033
  C      223.425     -17.516      69.318
  N      223.367     -18.112      70.527
  C      223.336     -17.193      71.507
  C      223.366     -15.817      71.371
  C      223.442     -15.316      70.060
  N      223.496     -13.973      69.768
  N      223.321     -15.203      72.611
  C      223.263     -16.195      73.476
  N      223.277     -17.413      72.857
  O      225.287     -18.164      79.222
  O      225.776     -20.564      79.984
  H      224.603     -20.573      72.001
  H      225.524     -17.983      80.152
  H      223.440     -18.183      68.460
  H      223.219     -16.088      74.553
  H      222.583     -19.352      72.938
  H      225.416     -18.634      73.934
  H      225.294     -20.857      75.053
  H      222.717     -20.324      75.994
  H      225.124     -18.472      76.379
  H      223.607     -18.374      77.314
  H      223.566     -13.697      68.802
  H      223.493     -13.305      70.524
  P      223.823     -22.990      74.502
  C      222.455     -22.864      76.728
  O      222.575     -23.403      75.421
  O      224.992     -22.822      75.588
  O      224.216     -23.971      73.449
  H      225.507     -23.650      75.643
  H      221.570     -23.246      77.192
  H      222.395     -21.797      76.670
  H      223.310     -23.142      77.308

 6  7  8  9  10  11  12  13  14  15  25  28  32  33  34  35 0
 6-311+G(2d,p)
 ****
 36  37  40 0
 6-311+G(2d,p)
 ****
 1  2  3  4  5  16  17  18  19  20  21  22  23  24 0
 3-21G
 ****
 26  27  29  30  31  38  39 41  42  43  44  45  46  47  48 0
 3-21G
 ****


