%nproc=1
%NoSave
%Mem=1900MB
#P OB98/GEN NMR

erre ene a

0 1
  C      -54.479     156.214     126.114
  O      -53.067     156.121     126.018
  P      -52.286     154.771     126.409
  C      -53.638     153.513     124.594
  O      -53.256     153.574     125.959
  C      -53.717     152.057     124.127
  O      -54.466     151.295     125.111
  C      -54.403     151.862     122.769
  O      -53.745     150.774     122.111
  C      -55.820     151.476     123.159
  O      -56.501     150.781     122.124
  C      -55.556     150.649     124.421
  N      -56.733     150.541     125.278
  C      -57.509     149.385     125.178
  O      -57.220     148.497     124.375
  N      -58.605     149.255     125.996
  C      -58.946     150.231     126.780
  N      -60.005     150.031     127.614
  C      -58.217     151.515     126.838
  C      -57.123     151.588     126.085
  O      -51.827     154.701     127.826
  O      -51.111     154.668     125.332
  H      -57.447     150.727     122.360
  H      -50.306     155.183     125.591
  H      -58.559     152.309     127.487
  H      -56.511     152.480     126.081
  H      -55.206     149.645     124.148
  H      -56.394     152.381     123.391
  H      -54.348     152.754     122.137
  H      -52.698     151.647     124.103
  H      -60.369     149.086     127.669
  H      -52.882     154.034     123.999
  H      -60.122     150.590     128.452
  H      -54.598     154.022     124.456
  P      -53.678     150.782     120.505
  C      -51.439     152.098     120.489
  O      -52.782     152.032     120.055
  O      -55.159     151.280     120.122
  O      -53.398     149.472     119.844
  H      -55.381     150.955     119.230
  H      -50.983     153.007     120.083
  H      -50.876     151.233     120.124
  H      -51.391     152.140     121.579
  H      -54.794     157.190     125.809
  H      -54.780     156.043     127.126
  H      -54.929     155.479     125.479

 3  4  5  6  7  8  9  10  11  12  13  23  27  28  29  30  32 0
 6-311+G(2d,p)
 ****
 34  35 0
 6-311+G(2d,p)
 ****
 1  2  14  15  16  17  18  19  20  21  22  24  25  26 0
 3-21G
 ****
 31  33  36  37  38  39  40  41  42  43  44  45  46 0
 3-21G
 ****


