%nproc=1
%NoSave
%Mem=1900MB
#P OB98/GEN NMR

erre ene a

0 1
  C      137.569     270.212     167.578
  O      136.222     270.226     168.065
  P      135.213     269.091     167.542
  C      133.242     270.797     168.031
  O      133.713     269.464     167.958
  C      131.978     270.833     168.910
  O      131.026     269.838     168.474
  C      132.252     270.550     170.388
  O      132.627     271.724     171.093
  C      130.939     269.954     170.852
  O      129.963     270.990     171.065
  C      130.557     269.086     169.626
  N      131.105     267.708     169.550
  C      130.808     266.793     170.551
  O      130.120     267.037     171.539
  N      131.342     265.536     170.395
  C      131.971     265.056     169.272
  O      132.371     263.903     169.162
  C      132.114     266.030     168.180
  C      131.699     267.280     168.369
  O      135.550     267.825     168.459
  O      135.333     268.778     166.079
  H      129.776     271.384     170.186
  H      135.913     267.094     167.908
  H      131.201     264.873     171.140
  H      132.570     265.684     167.258
  H      131.810     268.002     167.558
  H      129.463     269.000     169.537
  H      131.052     269.433     171.813
  H      133.027     269.778     170.482
  H      131.507     271.824     168.812
  H      133.013     271.184     167.041
  H      134.015     271.437     168.460
  P      134.167     272.016     171.412
  C      133.972     273.117     173.730
  O      134.182     273.330     172.350
  O      135.096     272.043     170.238
  O      134.560     270.842     172.454
  H      134.985     270.088     171.993
  H      134.144     274.061     174.251
  H      134.644     272.347     174.103
  H      132.933     272.816     173.907
  H      138.114     271.023     168.014
  H      137.564     270.317     166.513
  H      138.035     269.286     167.843

 3  4  5  6  7  8  9  10  11  12  13  23  28  29  30  31  32 0
 6-311+G(2d,p)
 ****
 33  34 0
 6-311+G(2d,p)
 ****
 1  2  14  15  16  17  18  19  20  21  22  24  25  26  27 0
 3-21G
 ****
 35  36  37  38  39  40  41  42  43  44  45 0
 3-21G
 ****


