%nproc=1
%NoSave
%Mem=1900MB
#P OB98/GEN NMR

erre ene a

0 1
  C     -734.202    -342.153     168.401
  O     -733.702    -343.460     168.608
  H     -734.224    -341.600     169.350
  H     -733.544    -341.625     167.705
  H     -735.213    -342.201     167.975
  P     -734.472    -344.355     169.690
  C     -734.577    -344.436     172.282
  O     -733.983    -343.847     171.134
  C     -733.506    -344.898     173.251
  O     -732.676    -343.779     173.662
  C     -734.022    -345.503     174.552
  O     -734.450    -346.849     174.376
  C     -732.790    -345.419     175.421
  O     -731.902    -346.511     175.125
  C     -732.145    -344.093     174.976
  N     -731.893    -342.376     179.811
  C     -731.531    -343.557     179.245
  N     -731.641    -343.943     177.962
  C     -732.171    -342.967     177.210
  C     -732.606    -341.713     177.634
  C     -732.451    -341.433     179.012
  N     -732.848    -340.234     179.573
  N     -733.089    -340.975     176.588
  C     -732.957    -341.756     175.532
  N     -732.424    -342.981     175.864
  O     -733.781    -345.796     169.544
  O     -735.954    -344.439     169.510
  H     -731.053    -346.317     175.567
  H     -734.452    -346.484     169.690
  H     -731.099    -344.273     179.925
  H     -733.241    -341.488     174.524
  H     -731.061    -344.184     174.865
  H     -733.002    -345.460     176.491
  H     -734.820    -344.876     174.984
  H     -732.851    -345.618     172.728
  H     -735.180    -345.302     171.976
  H     -732.532    -340.018     180.506
  H     -733.249    -339.528     178.962
  H     -735.232    -343.696     172.762
  P     -735.636    -347.380     175.331
  C     -735.878    -347.698     177.893
  O     -735.094    -347.166     176.833
  O     -735.567    -348.965     175.137
  O     -736.992    -346.829     175.025
  H     -736.439    -349.359     175.329
  H     -735.404    -347.485     178.829
  H     -735.969    -348.757     177.772
  H     -736.851    -347.252     177.876

 6  7  8  9  10  11  12  13  14  15  25  28  32  33  34  35 0
 6-311+G(2d,p)
 ****
 36  39  40 0
 6-311+G(2d,p)
 ****
 1  2  3  4  5  16  17  18  19  20  21  22  23  24 0
 3-21G
 ****
 26  27  29  30  31  37  38  41  42  43  44  45  46  47  48 0
 3-21G
 ****


