%nproc=1
%NoSave
%Mem=1900MB
#P OB98/GEN NMR

erre ene a

0 1
  C      -82.597     -35.684    -223.518
  O      -82.785     -35.544    -224.911
  H      -81.690     -35.142    -223.232
  H      -82.469     -36.742    -223.269
  H      -83.442     -35.274    -222.962
  P      -84.195     -35.956    -225.548
  C      -84.962     -36.167    -228.003
  O      -83.921     -36.393    -227.066
  C      -84.393     -35.891    -229.402
  O      -83.736     -34.596    -229.394
  C      -83.328     -36.926    -229.791
  O      -83.242     -37.111    -231.201
  C      -82.036     -36.283    -229.292
  O      -80.878     -36.771    -229.959
  C      -82.324     -34.803    -229.545
  N      -77.762     -33.052    -228.080
  C      -78.062     -34.119    -228.904
  N      -77.012     -34.807    -229.408
  N      -79.283     -34.489    -229.193
  C      -80.233     -33.759    -228.562
  C      -80.059     -32.697    -227.704
  C      -78.705     -32.268    -227.419
  O      -78.385     -31.350    -226.678
  N      -81.268     -32.212    -227.257
  C      -82.165     -32.976    -227.833
  N      -81.593     -33.920    -228.655
  O      -84.955     -34.554    -225.723
  O      -85.009     -36.925    -224.742
  H      -80.912     -36.456    -230.880
  H      -85.919     -34.695    -225.764
  H      -76.804     -32.788    -227.911
  H      -83.234     -32.891    -227.706
  H      -82.054     -34.533    -230.582
  H      -81.924     -36.519    -228.229
  H      -76.071     -34.673    -229.055
  H      -83.485     -37.895    -229.312
  H      -77.206     -35.752    -229.749
  H      -85.205     -35.834    -230.137
  H      -85.539     -35.308    -227.645
  H      -85.643     -37.020    -228.028
  P      -84.107     -38.276    -231.878
  C      -85.557     -38.293    -234.089
  O      -84.375     -37.934    -233.415
  O      -85.542     -38.134    -231.193
  O      -83.531     -39.654    -231.697
  H      -85.748     -38.926    -230.665
  H      -85.505     -37.958    -235.104
  H      -86.396     -37.837    -233.605
  H      -85.669     -39.357    -234.070

 6  7  8  9  10  11  12  13  14  15  26  29  33  34 0
 6-311+G(2d,p)
 ****
 36  38  39  40  41 0
 6-311+G(2d,p)
 ****
 1  2  3  4  5  16  17  18  19  20  21  22  23  24  25 0
 3-21G
 ****
 27  28  30  31  32  35  37  42  43  44  45  46  47 0
 3-21G
 ****
 48  49 0
 3-21G
 ****


