%nproc=1
%NoSave
%Mem=1900MB
#P OB98/GEN NMR

erre ene a

0 1
  C     1209.327      82.428     348.731
  O     1209.819      81.722     349.862
  P     1209.616      80.124     349.890
  C     1207.207      79.874     350.858
  O     1208.619      79.833     351.104
  C     1206.474      78.883     351.733
  O     1206.994      77.548     351.540
  C     1206.611      79.146     353.240
  O     1205.689      80.161     353.676
  C     1206.219      77.795     353.806
  O     1204.785      77.641     353.804
  C     1206.864      76.829     352.791
  N     1209.629      72.668     353.872
  C     1208.330      72.824     353.566
  N     1207.655      73.965     353.288
  C     1208.481      75.028     353.418
  C     1209.820      75.039     353.762
  C     1210.415      73.767     353.987
  N     1211.754      73.616     354.288
  N     1210.314      76.309     353.797
  C     1209.306      77.086     353.456
  N     1208.171      76.351     353.206
  O     1211.036      79.595     350.420
  O     1209.246      79.517     348.570
  H     1204.484      77.746     352.880
  H     1211.173      78.668     350.153
  H     1207.737      71.915     353.506
  H     1209.339      78.167     353.370
  H     1206.248      75.959     352.594
  H     1206.545      77.657     354.842
  H     1207.628      79.386     353.504
  H     1205.424      78.880     351.439
  H     1207.026      79.623     349.804
  H     1212.131      72.684     354.243
  H     1212.361      74.413     354.177
  H     1206.860      80.904     351.034
  P     1206.338      81.581     354.099
  C     1204.762      81.641     356.175
  O     1205.218      82.288     354.991
  O     1206.297      82.382     352.719
  O     1207.691      81.468     354.681
  H     1206.992      83.074     352.734
  H     1204.259      82.379     356.806
  H     1205.610      81.204     356.735
  H     1204.064      80.843     355.918
  H     1209.529      83.472     348.847
  H     1208.271      82.276     348.648
  H     1209.810      82.067     347.847

 3  4  5  6  7  8  9  10  11  12  22  25  29  30  31  32 0
 6-311+G(2d,p)
 ****
 33  36  37 0
 6-311+G(2d,p)
 ****
 1  2  13  14  15  16  17  18  19  20  21  23  24  26 0
 3-21G
 ****
 27  28  34  35  38  39  40  41  42  43  44  45  46  47  48 0
 3-21G
 ****


