%nproc=1
%NoSave
%Mem=1900MB
#P OB98/GEN NMR

erre ene a

0 1
  C      210.725     100.502    -206.509
  O      210.009     101.615    -207.006
  H      210.250     100.162    -205.584
  H      211.758     100.786    -206.291
  H      210.706      99.684    -207.236
  P      210.568     102.280    -208.355
  C      208.511     103.850    -208.546
  O      209.923     103.749    -208.428
  C      208.027     105.194    -208.012
  O      208.264     105.294    -206.589
  C      208.697     106.405    -208.651
  O      208.083     106.737    -209.885
  C      208.475     107.466    -207.581
  O      207.148     108.023    -207.657
  C      208.657     106.660    -206.287
  N      212.092     109.496    -203.907
  C      210.779     109.771    -204.234
  N      210.331     111.009    -203.925
  N      209.979     108.918    -204.817
  C      210.575     107.734    -205.096
  C      211.862     107.334    -204.808
  C      212.724     108.279    -204.132
  O      213.876     108.074    -203.760
  N      212.088     106.050    -205.232
  C      210.956     105.687    -205.805
  N      210.013     106.682    -205.763
  O      209.794     101.485    -209.512
  O      212.045     102.213    -208.537
  H      207.004     108.613    -206.898
  H      210.363     101.441    -210.304
  H      212.650     110.187    -203.442
  H      210.772     104.726    -206.261
  H      208.003     107.016    -205.484
  H      209.171     108.299    -207.691
  H      210.967     111.784    -203.794
  H      209.772     106.232    -208.777
  H      209.377     111.226    -204.180
  H      206.939     105.234    -208.161
  H      208.047     103.045    -207.969
  H      208.229     103.740    -209.600
  P      209.002     106.717    -211.202
  C      207.471     108.542    -212.251
  O      208.792     108.138    -211.920
  O      208.237     105.702    -212.171
  O      210.418     106.313    -210.969
  H      208.833     105.404    -212.884
  H      207.499     109.503    -212.720
  H      206.881     108.597    -211.360
  H      207.038     107.830    -212.923

 6  7  8  9  10  11  12  13  14  15  26  29  33  34 0
 6-311+G(2d,p)
 ****
 36  38  39  40  41 0
 6-311+G(2d,p)
 ****
 1  2  3  4  5  16  17  18  19  20  21  22  23  24  25 0
 3-21G
 ****
 27  28  30  31  32  35  37  42  43  44  45  46  47 0
 3-21G
 ****
 48  49 0
 3-21G
 ****


