%nproc=1
%NoSave
%Mem=1900MB
#P OB98/GEN NMR

erre ene a

0 1
  C     -287.965    -399.176    -917.135
  O     -286.703    -399.697    -916.743
  H     -287.810    -398.421    -917.909
  H     -288.467    -398.701    -916.291
  H     -288.594    -399.972    -917.538
  P     -286.656    -400.712    -915.506
  C     -284.186    -400.058    -915.065
  O     -285.109    -401.111    -915.337
  C     -282.822    -400.637    -914.696
  O     -282.914    -401.414    -913.479
  C     -282.265    -401.588    -915.751
  O     -281.772    -400.875    -916.860
  C     -281.244    -402.347    -914.944
  O     -280.032    -401.599    -914.807
  C     -281.969    -402.498    -913.577
  N     -282.618    -403.788    -913.435
  C     -281.937    -404.743    -912.654
  O     -280.849    -404.464    -912.145
  N     -282.504    -405.990    -912.507
  C     -283.654    -406.248    -913.049
  N     -284.147    -407.502    -912.861
  C     -284.412    -405.273    -913.866
  C     -283.847    -404.076    -914.009
  O     -287.591    -401.879    -915.547
  O     -286.932    -399.774    -914.236
  H     -279.570    -401.665    -915.684
  H     -287.882    -399.715    -914.049
  H     -285.366    -405.542    -914.291
  H     -284.332    -403.305    -914.593
  H     -281.250    -402.376    -912.754
  H     -280.987    -403.303    -915.410
  H     -283.051    -402.302    -916.067
  H     -282.130    -399.800    -914.516
  H     -283.598    -408.151    -912.323
  H     -284.592    -399.486    -914.220
  H     -285.065    -407.797    -913.172
  H     -284.091    -399.391    -915.920
  P     -282.470    -401.000    -918.302
  C     -280.474    -402.133    -919.497
  O     -281.273    -400.950    -919.371
  O     -283.598    -400.055    -918.556
  O     -282.916    -402.549    -918.355
  H     -283.711    -402.711    -917.771
  H     -279.716    -401.974    -920.235
  H     -281.095    -402.953    -919.793
  H     -280.015    -402.355    -918.556

 6  7  8  9  10  11  12  13  14  15  16  26  30  31  32  33  35 0
 6-311+G(2d,p)
 ****
 37  38 0
 6-311+G(2d,p)
 ****
 1  2  3  4  5  17  18  19  20  21  22  23  24  25 0
 3-21G
 ****
 27  28  29  34  36  39  40  41  42  43  44  45  46 0
 3-21G
 ****


