%nproc=1
%NoSave
%Mem=1900MB
#P OB98/GEN NMR

erre ene a

0 1
  C       88.464      77.182    -138.241
  O       89.199      77.129    -139.444
  H       87.535      76.621    -138.372
  H       88.211      78.219    -138.006
  H       89.026      76.740    -137.414
  P       90.722      77.628    -139.449
  C       90.230      80.054    -138.718
  O       90.805      78.805    -138.362
  C       90.931      81.189    -137.971
  O       92.367      81.076    -138.212
  C       90.490      82.593    -138.432
  O       90.522      83.475    -137.304
  C       91.595      82.952    -139.404
  O       91.671      84.338    -139.626
  C       92.809      82.353    -138.702
  N       93.949      82.240    -139.608
  C       95.125      82.871    -139.221
  O       95.242      83.517    -138.181
  N       96.160      82.806    -140.112
  C       96.101      82.280    -141.368
  O       97.036      82.318    -142.154
  C       94.814      81.670    -141.744
  C       93.815      81.672    -140.859
  O       91.293      77.972    -140.784
  O       91.526      76.448    -138.727
  H       92.210      84.757    -138.930
  H       92.472      76.487    -138.964
  H       97.024      83.252    -139.841
  H       94.728      81.257    -142.739
  H       92.849      81.250    -141.107
  H       93.100      82.959    -137.835
  H       91.419      82.468    -140.370
  H       89.497      82.603    -138.886
  H       90.776      81.060    -136.894
  H       89.168      80.031    -138.450
  H       90.321      80.202    -139.800
  P       89.178      83.978    -136.585
  C       88.446      85.959    -138.045
  O       88.168      84.617    -137.663
  O       89.410      84.842    -135.387
  O       88.438      82.627    -136.145
  H       88.123      82.719    -135.225
  H       87.720      86.284    -138.760
  H       89.422      86.011    -138.479
  H       88.405      86.591    -137.183

 6  7  8  9  10  11  12  13  14  15  16  26  31  32  33  34  35 0
 6-311+G(2d,p)
 ****
 36  37 0
 6-311+G(2d,p)
 ****
 1  2  3  4  5  17  18  19  20  21  22  23  24  25 0
 3-21G
 ****
 27  28  29  30  38  39  40  41  42  43  44  45 0
 3-21G
 ****


