%nproc=1
%NoSave
%Mem=1900MB
#P OB98/GEN NMR

erre ene a

0 1
  C     -178.757     -77.867     100.473
  O     -178.599     -78.059     101.868
  P     -177.242     -77.535     102.551
  C     -176.650     -79.970     103.261
  O     -176.239     -78.786     102.599
  C     -175.457     -80.650     103.937
  O     -175.958     -81.621     104.892
  C     -174.517     -81.396     102.984
  O     -173.199     -81.300     103.536
  C     -175.004     -82.829     103.075
  O     -174.016     -83.773     102.670
  C     -175.391     -82.903     104.548
  N     -176.093     -87.905     104.792
  C     -174.980     -87.186     104.394
  N     -173.885     -87.908     104.073
  N     -174.946     -85.881     104.319
  C     -176.111     -85.298     104.686
  C     -177.289     -85.900     105.060
  C     -177.302     -87.341     105.175
  O     -178.236     -88.013     105.606
  N     -178.280     -84.980     105.271
  C     -177.680     -83.819     105.105
  N     -176.353     -83.959     104.794
  O     -177.668     -77.331     104.078
  O     -176.650     -76.300     101.949
  H     -173.367     -83.856     103.398
  H     -177.939     -76.409     104.248
  H     -176.053     -88.909     104.847
  H     -178.148     -82.852     105.199
  H     -174.527     -83.082     105.201
  H     -175.882     -82.963     102.430
  H     -173.830     -88.912     104.137
  H     -174.531     -81.008     101.961
  H     -173.046     -87.404     103.809
  H     -174.904     -79.891     104.503
  H     -177.070     -80.661     102.522
  H     -177.428     -79.732     103.993
  P     -171.990     -80.960     102.539
  C     -170.601     -83.055     103.161
  O     -171.281     -82.340     102.150
  O     -170.920     -80.258     103.504
  O     -172.350     -80.061     101.402
  H     -170.417     -79.590     103.003
  H     -170.531     -84.105     102.865
  H     -171.123     -82.994     104.121
  H     -169.591     -82.653     103.274
  H     -179.701     -78.263     100.163
  H     -177.970     -78.371      99.952
  H     -178.719     -76.821     100.250

 3  4  5  6  7  8  9  10  11  12  23  26  30  31 0
 6-311+G(2d,p)
 ****
 33  35  36  37  38 0
 6-311+G(2d,p)
 ****
 1  2  13  14  15  16  17  18  19  20  21  22  24  25 0
 3-21G
 ****
 27  28  29  32  34  39  40  41  42  43  44  45  46  47  48  49 0
 3-21G
 ****


