%nproc=1
%NoSave
%Mem=1900MB
#P OB98/GEN NMR

erre ene a

0 1
  C      -72.080     172.368    -340.543
  O      -72.511     173.621    -340.040
  P      -72.810     173.887    -338.494
  C      -72.929     176.439    -338.965
  O      -73.547     175.313    -338.361
  C      -73.678     177.759    -338.685
  O      -74.865     177.820    -339.502
  C      -74.155     177.785    -337.223
  O      -73.275     178.192    -336.193
  C      -75.495     178.522    -337.261
  O      -75.361     179.907    -336.906
  C      -75.926     178.391    -338.726
  N      -80.956     178.396    -339.477
  C      -80.046     179.429    -339.637
  N      -80.585     180.660    -339.844
  N      -78.747     179.270    -339.580
  C      -78.377     178.005    -339.274
  C      -79.175     176.898    -339.111
  C      -80.605     177.079    -339.216
  O      -81.445     176.208    -338.998
  N      -78.450     175.783    -338.730
  C      -77.207     176.234    -338.633
  N      -77.123     177.583    -338.920
  O      -71.715     173.552    -337.526
  O      -74.019     172.854    -338.219
  H      -75.167     179.948    -335.952
  H      -73.927     172.522    -337.301
  H      -81.950     178.590    -339.453
  H      -76.369     175.639    -338.334
  H      -76.138     179.381    -339.160
  H      -76.203     178.080    -336.546
  H      -81.567     180.839    -339.748
  H      -74.415     176.750    -336.959
  H      -79.958     181.458    -339.795
  H      -73.074     178.620    -338.965
  H      -72.880     176.252    -340.039
  H      -71.901     176.529    -338.609
  P      -72.673     177.270    -335.037
  C      -70.453     178.523    -335.244
  O      -71.454     178.041    -334.357
  O      -71.954     176.074    -335.832
  O      -73.678     176.708    -334.077
  H      -71.862     175.288    -335.238
  H      -69.548     178.756    -334.677
  H      -70.812     179.439    -335.720
  H      -70.215     177.774    -336.005
  H      -71.947     172.436    -341.602
  H      -72.816     171.623    -340.323
  H      -71.152     172.099    -340.083

 3  4  5  6  7  8  9  10  11  12  23  26  30  31 0
 6-311+G(2d,p)
 ****
 33  35  36  37  38 0
 6-311+G(2d,p)
 ****
 1  2  13  14  15  16  17  18  19  20  21  22  24  25 0
 3-21G
 ****
 27  28  29  32  34  39  40  41  42  43  44  45  46  47  48  49 0
 3-21G
 ****


