%nproc=1
%NoSave
%Mem=1900MB
#P OB98/GEN NMR

erre ene a

0 1
  C     -463.804     578.408     -57.089
  O     -463.506     578.640     -58.448
  H     -464.548     579.148     -56.767
  H     -462.911     578.532     -56.475
  H     -464.226     577.407     -56.949
  P     -462.409     577.721     -59.181
  C     -463.974     576.663     -60.922
  O     -463.224     576.444     -59.731
  C     -463.349     575.937     -62.115
  O     -463.231     574.516     -61.810
  C     -464.148     576.069     -63.417
  O     -463.272     576.404     -64.495
  C     -464.713     574.673     -63.634
  O     -465.016     574.400     -65.000
  C     -463.600     573.813     -63.014
  N     -464.043     572.452     -62.749
  C     -463.147     571.434     -63.087
  O     -462.043     571.707     -63.567
  N     -463.531     570.124     -62.913
  C     -464.733     569.863     -62.500
  N     -465.063     568.543     -62.381
  C     -465.724     570.907     -62.158
  C     -465.316     572.167     -62.303
  O     -461.214     577.397     -58.348
  O     -462.041     578.513     -60.525
  H     -465.597     573.608     -65.044
  H     -461.156     578.212     -60.837
  H     -466.711     570.628     -61.819
  H     -465.972     572.999     -62.083
  H     -462.725     573.776     -63.674
  H     -465.640     574.561     -63.056
  H     -464.944     576.816     -63.360
  H     -462.320     576.307     -62.241
  H     -464.359     567.863     -62.628
  H     -464.020     577.745     -61.112
  H     -465.973     568.220     -62.086
  H     -464.987     576.282     -60.764
  P     -463.882     577.361     -65.638
  C     -462.759     579.558     -64.825
  O     -463.975     578.852     -65.039
  O     -465.418     576.887     -65.733
  O     -463.191     577.234     -66.951
  H     -465.567     576.420     -66.578
  H     -462.975     580.527     -64.427
  H     -462.239     579.662     -65.754
  H     -462.149     579.016     -64.133

 6  7  8  9  10  11  12  13  14  15  16  26  30  31  32  33  35 0
 6-311+G(2d,p)
 ****
 37  38 0
 6-311+G(2d,p)
 ****
 1  2  3  4  5  17  18  19  20  21  22  23  24  25 0
 3-21G
 ****
 27  28  29  34  36  39  40  41  42  43  44  45  46 0
 3-21G
 ****


