%nproc=1
%NoSave
%Mem=1900MB
#P OB98/GEN NMR

erre ene a

0 1
  C     -201.886     140.737       6.339
  O     -201.583     139.338       6.414
  P     -201.779     138.455       5.092
  C     -199.351     137.595       4.730
  O     -200.394     138.450       4.286
  C     -198.424     137.238       3.565
  O     -198.920     136.107       2.815
  C     -198.251     138.364       2.554
  O     -197.270     139.303       2.974
  C     -197.747     137.596       1.343
  O     -196.338     137.324       1.488
  C     -198.555     136.295       1.425
  N     -200.510     135.050      -3.070
  C     -199.238     134.857      -2.569
  N     -198.359     134.232      -3.383
  N     -198.861     135.240      -1.378
  C     -199.849     135.834      -0.669
  C     -201.146     136.084      -1.056
  C     -201.546     135.668      -2.382
  O     -202.654     135.825      -2.885
  N     -201.851     136.713      -0.065
  C     -200.991     136.827       0.929
  N     -199.755     136.323       0.605
  O     -202.715     139.381       4.180
  O     -202.394     137.117       5.333
  H     -196.234     136.832       2.324
  H     -203.247     138.826       3.581
  H     -200.745     134.739      -3.997
  H     -201.212     137.262       1.894
  H     -197.973     135.420       1.115
  H     -197.866     138.159       0.413
  H     -198.595     133.866      -4.291
  H     -199.211     138.843       2.325
  H     -197.431     134.051      -3.020
  H     -197.442     136.975       3.980
  H     -199.766     136.683       5.166
  H     -198.806     138.090       5.539
  P     -197.630     140.861       2.865
  C     -196.767     141.672       5.175
  O     -197.881     141.363       4.364
  O     -199.090     140.843       2.210
  O     -196.672     141.667       2.057
  H     -199.218     141.637       1.659
  H     -197.123     142.146       6.092
  H     -196.092     142.362       4.662
  H     -196.230     140.756       5.439
  H     -201.708     141.192       7.291
  H     -202.913     140.865       6.068
  H     -201.263     141.198       5.602

 3  4  5  6  7  8  9  10  11  12  23  26  30  31 0
 6-311+G(2d,p)
 ****
 33  35  36  37  38 0
 6-311+G(2d,p)
 ****
 1  2  13  14  15  16  17  18  19  20  21  22  24  25 0
 3-21G
 ****
 27  28  29  32  34  39  40  41  42  43  44  45  46  47  48  49 0
 3-21G
 ****


