%nproc=1
%NoSave
%Mem=1900MB
#P OB98/GEN NMR

erre ene a

0 1
  C      122.549      15.218     -14.157
  O      122.168      14.976     -15.512
  P      123.149      14.143     -16.465
  C      124.433      16.173     -17.403
  O      124.512      14.968     -16.658
  C      125.654      17.068     -17.137
  O      126.871      16.351     -17.476
  C      125.631      18.369     -17.950
  O      125.841      19.533     -17.151
  C      126.655      18.122     -19.044
  O      127.188      19.321     -19.586
  C      127.648      17.169     -18.369
  N      128.392      16.371     -19.347
  C      129.584      16.909     -19.813
  O      129.984      18.031     -19.502
  N      130.283      16.141     -20.705
  C      129.873      14.948     -21.224
  O      130.513      14.320     -22.056
  C      128.572      14.458     -20.742
  C      127.904      15.181     -19.841
  O      122.543      13.622     -17.725
  O      123.618      12.930     -15.521
  H      127.802      19.713     -18.927
  H      123.670      12.124     -16.071
  H      131.160      16.510     -21.039
  H      128.205      13.527     -21.149
  H      126.940      14.850     -19.479
  H      128.382      17.723     -17.776
  H      126.160      17.589     -19.865
  H      124.649      18.537     -18.407
  H      125.669      17.287     -16.065
  H      123.530      16.716     -17.121
  H      124.327      15.936     -18.467
  P      124.745      20.672     -16.903
  C      124.811      22.535     -18.703
  O      124.311      21.269     -18.322
  O      125.090      21.692     -15.871
  O      123.456      19.837     -16.444
  H      123.004      20.315     -15.725
  H      124.160      22.950     -19.476
  H      125.817      22.420     -19.115
  H      124.837      23.224     -17.855
  H      121.785      15.784     -13.667
  H      123.467      15.767     -14.137
  H      122.681      14.284     -13.651

 3  4  5  6  7  8  9  10  11  12  13  23  28  29  30  31  32 0
 6-311+G(2d,p)
 ****
 33  34 0
 6-311+G(2d,p)
 ****
 1  2  14  15  16  17  18  19  20  21  22  24  25  26  27 0
 3-21G
 ****
 35  36  37  38  39  40  41  42  43  44  45 0
 3-21G
 ****


