%nproc=1
%NoSave
%Mem=1900MB
#P OB98/GEN NMR

erre ene a

0 1
  C     -116.035      26.607      28.321
  O     -116.781      25.653      29.054
  P     -116.126      24.208      29.280
  C     -117.236      24.385      31.633
  O     -116.850      23.551      30.549
  C     -118.546      23.874      32.235
  O     -118.479      22.447      32.448
  C     -118.867      24.477      33.596
  O     -119.404      25.783      33.471
  C     -119.857      23.464      34.155
  O     -121.184      23.718      33.668
  C     -119.311      22.138      33.587
  N     -118.594      21.353      34.586
  C     -119.226      20.190      35.015
  O     -120.333      19.841      34.605
  N     -118.561      19.461      35.961
  C     -117.378      19.801      36.551
  O     -116.858      19.134      37.436
  C     -116.770      21.056      36.079
  C     -117.398      21.766      35.139
  O     -114.651      24.535      29.810
  O     -116.099      23.342      28.067
  H     -121.600      24.335      34.301
  H     -114.021      23.871      29.469
  H     -118.990      18.603      36.267
  H     -115.831      21.357      36.525
  H     -116.974      22.700      34.789
  H     -120.136      21.527      33.199
  H     -119.906      23.495      35.247
  H     -117.967      24.482      34.224
  H     -119.357      24.076      31.524
  H     -117.370      25.408      31.272
  H     -116.442      24.385      32.385
  P     -119.476      26.670      34.809
  C     -119.216      28.725      33.217
  O     -119.884      28.137      34.312
  O     -117.923      26.770      35.184
  O     -120.337      26.063      35.864
  H     -117.355      26.777      34.396
  H     -118.950      27.980      32.463
  H     -118.311      29.224      33.571
  H     -119.874      29.469      32.762
  H     -116.592      27.518      28.250
  H     -115.841      26.230      27.339
  H     -115.107      26.794      28.820

 3  4  5  6  7  8  9  10  11  12  13  23  28  29  30  31  32 0
 6-311+G(2d,p)
 ****
 33  34 0
 6-311+G(2d,p)
 ****
 1  2  14  15  16  17  18  19  20  21  22  24  25  26 0
 3-21G
 ****
 27  35  36  37  38  39  40  41  42  43  44  45 0
 3-21G
 ****


