%nproc=1
%NoSave
%Mem=1900MB
#P OB98/GEN NMR

erre ene a

0 1
  C      438.040    -320.417      57.507
  O      436.805    -319.884      57.947
  H      438.575    -319.647      56.944
  H      437.868    -321.276      56.855
  H      438.650    -320.714      58.365
  P      435.874    -320.857      58.815
  C      433.584    -319.819      58.127
  O      434.545    -320.020      59.148
  C      432.860    -318.479      58.324
  O      433.691    -317.418      57.766
  C      431.497    -318.394      57.616
  O      430.667    -317.487      58.368
  C      431.870    -317.758      56.291
  O      430.736    -317.289      55.610
  C      432.882    -316.726      56.784
  N      433.514    -312.847      53.499
  C      432.599    -313.067      54.471
  N      432.505    -314.116      55.314
  C      433.496    -314.995      55.093
  C      434.507    -314.910      54.150
  C      434.495    -313.776      53.318
  N      435.417    -313.554      52.324
  N      435.341    -316.011      54.226
  C      434.849    -316.747      55.197
  N      433.730    -316.178      55.747
  O      436.637    -320.943      60.218
  O      435.632    -322.206      58.221
  H      430.263    -316.611      56.142
  H      437.204    -321.738      60.239
  H      431.844    -312.297      54.583
  H      435.247    -317.695      55.538
  H      432.391    -315.884      57.291
  H      432.352    -318.488      55.631
  H      430.993    -319.360      57.530
  H      432.768    -318.280      59.396
  H      432.857    -320.641      58.166
  H      434.076    -319.826      57.151
  H      435.329    -312.721      51.762
  H      436.142    -314.244      52.164
  P      429.207    -317.973      58.845
  C      427.569    -316.045      58.163
  O      428.321    -316.681      59.186
  O      429.512    -318.564      60.302
  O      428.556    -319.005      57.982
  H      428.867    -319.263      60.519
  H      427.045    -315.207      58.574
  H      426.866    -316.740      57.753
  H      428.230    -315.709      57.391

 6  7  8  9  10  11  12  13  14  15  25  28  32  33  34  35 0
 6-311+G(2d,p)
 ****
 36  37  40 0
 6-311+G(2d,p)
 ****
 1  2  3  4  5  16  17  18  19  20  21  22  23  24 0
 3-21G
 ****
 26  27  29  30  31  38  39 41  42  43  44  45  46  47  48 0
 3-21G
 ****


