%nproc=1
%NoSave
%Mem=1900MB
#P OB98/GEN NMR

erre ene a

0 1
  C      512.860     180.259     500.551
  O      513.477     181.018     499.524
  P      512.770     181.204     498.104
  C      511.818     183.618     498.507
  O      512.679     182.764     497.786
  C      511.712     184.961     497.771
  O      512.854     185.787     498.087
  C      511.675     184.770     496.254
  O      510.332     184.737     495.791
  C      512.463     185.965     495.754
  O      511.636     187.141     495.711
  C      513.546     186.108     496.848
  N      514.745     185.247     496.763
  C      515.702     185.497     495.784
  O      515.639     186.429     494.988
  N      516.752     184.614     495.741
  C      516.945     183.558     496.588
  O      517.742     182.650     496.393
  C      516.053     183.513     497.749
  C      515.004     184.333     497.774
  O      511.254     180.800     498.400
  O      513.356     180.405     496.985
  H      512.213     187.887     495.463
  H      511.080     179.877     498.124
  H      517.379     184.707     494.944
  H      516.255     182.781     498.527
  H      514.302     184.288     498.610
  H      513.900     187.145     496.923
  H      512.813     185.799     494.730
  H      512.209     183.854     495.975
  H      510.810     185.482     498.113
  H      512.200     183.762     499.522
  H      510.824     183.160     498.597
  P      509.980     183.930     494.456
  C      509.436     181.566     495.297
  O      508.911     182.824     494.908
  O      511.154     183.417     493.682
  O      509.122     184.981     493.608
  H      509.695     185.423     492.944
  H      508.637     180.979     495.751
  H      510.241     181.701     496.030
  H      509.821     181.042     494.420
  H      513.488     180.254     501.417
  H      512.712     179.255     500.212
  H      511.915     180.695     500.798

 3  4  5  6  7  8  9  10  11  12  13  23  28  29  30  31  32 0
 6-311+G(2d,p)
 ****
 33  34 0
 6-311+G(2d,p)
 ****
 1  2  14  15  16  17  18  19  20  21  22  24  25  26  27 0
 3-21G
 ****
 35  36  37  38  39  40  41  42  43  44  45 0
 3-21G
 ****


