%nproc=1
%NoSave
%Mem=1900MB
#P OB98/GEN NMR

erre ene a

0 1
  C      -88.905    -189.410      98.357
  O      -87.637    -189.636      98.939
  H      -89.288    -188.451      98.713
  H      -89.601    -190.200      98.649
  H      -88.820    -189.374      97.267
  P      -86.887    -190.993      98.525
  C      -85.552    -189.843      96.612
  O      -86.499    -190.840      96.976
  C      -84.295    -190.506      96.060
  O      -84.621    -191.249      94.862
  C      -83.210    -189.522      95.644
  O      -82.480    -189.024      96.749
  C      -82.380    -190.381      94.705
  O      -81.447    -191.194      95.426
  C      -83.440    -191.257      94.028
  N      -82.126    -191.514      89.103
  C      -81.666    -192.166      90.193
  N      -82.079    -192.048      91.473
  C      -83.094    -191.173      91.565
  C      -83.670    -190.439      90.541
  C      -83.145    -190.638      89.254
  N      -83.594    -189.958      88.147
  N      -84.661    -189.614      91.033
  C      -84.690    -189.850      92.329
  N      -83.765    -190.788      92.695
  O      -88.071    -192.071      98.516
  O      -85.770    -191.400      99.424
  H      -80.876    -191.614      94.755
  H      -88.048    -192.585      99.345
  H      -80.853    -192.863      90.018
  H      -85.352    -189.367      93.038
  H      -83.115    -192.301      93.933
  H      -81.813    -189.760      94.010
  H      -83.651    -188.696      95.070
  H      -83.915    -191.215      96.807
  H      -85.290    -189.253      97.497
  H      -86.002    -189.183      95.864
  H      -83.126    -190.101      87.267
  H      -84.275    -189.219      88.268
  P      -82.163    -187.453      96.787
  C      -83.864    -186.785      98.647
  O      -83.496    -186.710      97.277
  O      -82.046    -187.049      95.242
  O      -80.936    -187.087      97.550
  H      -81.364    -186.359      95.130
  H      -84.771    -186.239      98.803
  H      -83.086    -186.364      99.249
  H      -84.012    -187.809      98.921

 6  7  8  9  10  11  12  13  14  15  25  28  32  33  34  35 0
 6-311+G(2d,p)
 ****
 36  37  40 0
 6-311+G(2d,p)
 ****
 1  2  3  4  5  16  17  18  19  20  21  22  23  24 0
 3-21G
 ****
 26  27  29  30  31  38  39 41  42  43  44  45  46  47  48 0
 3-21G
 ****


