%nproc=1
%NoSave
%Mem=1900MB
#P OB98/GEN NMR

erre ene a

0 1
  C       98.023      91.262    -241.954
  O       96.851      90.528    -242.244
  H       98.697      90.627    -241.372
  H       97.778      92.145    -241.362
  H       98.535      91.560    -242.874
  P       95.781      91.152    -243.260
  C       93.688      90.656    -241.835
  O       94.406      90.362    -243.029
  C       92.327      89.968    -241.863
  O       91.513      90.520    -242.918
  C       92.396      88.468    -242.130
  O       92.819      87.767    -240.975
  C       90.962      88.190    -242.560
  O       90.098      88.085    -241.416
  C       90.637      89.464    -243.378
  N       90.764      89.266    -244.822
  C       89.581      89.241    -245.551
  O       88.470      89.334    -245.032
  N       89.718      89.079    -246.907
  C       90.891      88.868    -247.573
  O       90.953      88.678    -248.785
  C       92.106      88.874    -246.747
  C       91.991      89.070    -245.431
  O       96.215      91.248    -244.685
  O       95.473      92.596    -242.640
  H       90.160      88.936    -240.942
  H       95.972      93.278    -243.128
  H       88.872      89.046    -247.452
  H       93.053      88.701    -247.240
  H       92.875      89.069    -244.802
  H       89.610      89.796    -243.169
  H       90.861      87.261    -243.119
  H       93.061      88.264    -242.977
  H       91.823      90.170    -240.908
  H       93.548      91.742    -241.767
  H       94.277      90.320    -240.976
  P       94.369      87.695    -240.588
  C       94.815      85.218    -241.066
  O       94.666      86.206    -240.055
  O       94.852      88.783    -239.688
  O       95.127      87.730    -241.996
  H       95.537      88.607    -242.128
  H       95.008      84.269    -240.611
  H       95.633      85.481    -241.704
  H       93.916      85.160    -241.644

 6  7  8  9  10  11  12  13  14  15  16  26  31  32  33  34  35 0
 6-311+G(2d,p)
 ****
 36  37 0
 6-311+G(2d,p)
 ****
 1  2  3  4  5  17  18  19  20  21  22  23  24  25 0
 3-21G
 ****
 27  28  29  30  38  39  40  41  42  43  44  45 0
 3-21G
 ****


