%nproc=1
%NoSave
%Mem=1900MB
#P OB98/GEN NMR

erre ene a

0 1
  C     -111.513     164.550    -116.934
  O     -111.966     165.824    -117.343
  H     -110.511     164.388    -117.336
  H     -112.178     163.776    -117.325
  H     -111.470     164.487    -115.843
  P     -113.317     166.373    -116.678
  C     -112.639     167.145    -114.289
  O     -112.882     167.518    -115.638
  C     -113.042     168.284    -113.354
  O     -113.363     167.719    -112.049
  C     -111.946     169.336    -113.141
  O     -112.569     170.619    -113.020
  C     -111.351     168.944    -111.801
  O     -110.694     170.010    -111.129
  C     -112.599     168.444    -111.065
  N     -112.273     167.595    -109.921
  C     -111.865     168.228    -108.752
  O     -111.840     169.445    -108.584
  N     -111.472     167.392    -107.736
  C     -111.425     166.031    -107.785
  O     -111.045     165.341    -106.847
  C     -111.860     165.422    -109.049
  C     -112.255     166.219    -110.044
  O     -113.768     165.165    -115.731
  O     -114.386     166.780    -117.636
  H     -114.345     164.547    -116.218
  H     -111.384     170.642    -110.839
  H     -111.173     167.836    -106.882
  H     -111.825     164.345    -109.128
  H     -112.561     165.804    -110.998
  H     -113.210     169.291    -110.734
  H     -110.627     168.134    -111.937
  H     -111.192     169.364    -113.933
  H     -113.961     168.746    -113.736
  H     -111.573     166.936    -114.156
  H     -113.209     166.240    -114.058
  P     -112.263     171.697    -114.170
  C     -114.172     170.946    -115.800
  O     -113.660     171.934    -114.920
  O     -111.405     170.821    -115.195
  O     -111.583     172.920    -113.657
  H     -111.697     169.893    -115.239
  H     -115.106     171.277    -116.204
  H     -114.320     170.032    -115.263
  H     -113.477     170.783    -116.597

 6  7  8  9  10  11  12  13  14  15  16  27  31  32  33  34  35 0
 6-311+G(2d,p)
 ****
 36  37 0
 6-311+G(2d,p)
 ****
 1  2  3  4  5  17  18  19  20  21  22  23  24  25 0
 3-21G
 ****
 26  28  29  30  38  39  40  41  42  43  44  45 0
 3-21G
 ****


