%nproc=1
%NoSave
%Mem=1900MB
#P OB98/GEN NMR

erre ene a

0 1
  C     -491.246      94.841     621.910
  O     -490.827      94.167     620.723
  P     -489.337      94.184     620.141
  C     -488.402      92.584     622.002
  O     -488.333      93.835     621.341
  C     -487.092      91.757     621.878
  O     -486.042      92.428     622.623
  C     -487.276      90.382     622.518
  O     -487.863      89.334     621.769
  C     -485.906      90.049     623.078
  O     -485.114      89.275     622.180
  C     -485.270      91.425     623.305
  N     -483.134      90.327     627.832
  C     -483.040      89.651     626.636
  N     -482.335      88.498     626.647
  N     -483.613      90.045     625.523
  C     -484.363      91.157     625.672
  C     -484.550      91.919     626.800
  C     -483.866      91.496     628.008
  O     -483.898      92.073     629.090
  N     -485.391      92.973     626.576
  C     -485.739      92.842     625.316
  N     -485.130      91.760     624.718
  O     -488.991      95.351     619.282
  O     -489.281      92.866     619.218
  H     -484.277      89.050     622.622
  H     -488.677      93.072     618.470
  H     -482.658      89.995     628.644
  H     -486.421      93.496     624.782
  H     -484.258      91.466     622.881
  H     -485.998      89.451     623.995
  H     -481.973      88.079     627.485
  H     -487.930      90.511     623.387
  H     -482.437      87.891     625.832
  H     -486.762      91.724     620.834
  H     -489.240      92.040     621.555
  H     -488.648      92.732     623.059
  P     -489.368      88.782     621.937
  C     -490.031      89.330     619.522
  O     -490.290      89.571     620.898
  O     -489.841      89.367     623.344
  O     -489.495      87.292     621.903
  H     -490.630      88.877     623.663
  H     -490.494      90.129     618.930
  H     -490.473      88.372     619.223
  H     -488.959      89.323     619.326
  H     -492.289      94.665     622.071
  H     -491.074      95.892     621.803
  H     -490.689      94.471     622.746

 3  4  5  6  7  8  9  10  11  12  23  26  30  31 0
 6-311+G(2d,p)
 ****
 33  35  36  37  38 0
 6-311+G(2d,p)
 ****
 1  2  13  14  15  16  17  18  19  20  21  22  24  25 0
 3-21G
 ****
 27  28  29  32  34  39  40  41  42  43  44  45  46  47  48  49 0
 3-21G
 ****


