%nproc=1
%NoSave
%Mem=1900MB
#P OB98/GEN NMR

erre ene a

0 1
  C     -176.624      21.717      46.997
  O     -175.968      22.817      46.390
  H     -177.532      21.492      46.430
  H     -176.892      21.961      48.026
  H     -175.970      20.836      46.979
  P     -174.581      23.275      47.055
  C     -175.462      25.529      48.033
  O     -174.975      24.219      48.293
  C     -175.834      26.224      49.346
  O     -175.802      27.670      49.129
  C     -177.245      25.879      49.852
  O     -177.253      25.961      51.291
  C     -178.070      27.027      49.286
  O     -179.314      27.112      49.933
  C     -177.100      28.179      49.519
  N     -179.932      32.419      49.475
  C     -179.744      31.469      50.418
  N     -178.964      30.375      50.352
  C     -178.311      30.319      49.177
  C     -178.401      31.216      48.122
  C     -179.267      32.311      48.298
  N     -179.475      33.265      47.336
  N     -177.597      30.803      47.072
  C     -177.033      29.687      47.487
  N     -177.435      29.360      48.755
  O     -173.978      24.296      45.976
  O     -173.627      22.178      47.379
  H     -179.905      27.750      49.483
  H     -173.387      23.822      45.362
  H     -180.297      31.611      51.343
  H     -176.339      29.079      46.921
  H     -177.044      28.470      50.578
  H     -178.263      26.880      48.214
  H     -177.591      24.889      49.536
  H     -175.074      26.003      50.105
  H     -176.346      25.450      47.386
  H     -174.688      26.109      47.518
  H     -180.135      34.005      47.530
  H     -179.014      33.175      46.443
  P     -177.408      24.606      52.146
  C     -179.737      24.975      53.267
  O     -178.958      24.239      52.333
  O     -176.991      25.096      53.612
  O     -176.538      23.471      51.710
  H     -176.377      24.447      54.012
  H     -180.740      24.603      53.266
  H     -179.739      26.009      52.993
  H     -179.318      24.866      54.245

 6  7  8  9  10  11  12  13  14  15  25  28  32  33  34  35 0
 6-311+G(2d,p)
 ****
 36  37  40 0
 6-311+G(2d,p)
 ****
 1  2  3  4  5  16  17  18  19  20  21  22  23  24 0
 3-21G
 ****
 26  27  29  30  31  38  39 41  42  43  44  45  46  47  48 0
 3-21G
 ****


