%nproc=1
%NoSave
%Mem=1900MB
#P OB98/GEN NMR

erre ene a

0 1
  C       16.122     -80.614    -113.851
  O       16.576     -81.386    -114.941
  H       15.967     -79.586    -114.189
  H       16.871     -80.612    -113.055
  H       15.176     -81.008    -113.472
  P       16.846     -82.947    -114.672
  C       19.405     -82.872    -114.207
  O       18.370     -83.187    -115.128
  C       20.587     -82.224    -114.934
  O       21.321     -83.244    -115.651
  C       20.164     -81.155    -115.943
  O       21.038     -80.031    -115.834
  C       20.325     -81.833    -117.291
  O       20.561     -80.898    -118.342
  C       21.467     -82.819    -117.019
  N       21.433     -83.956    -117.936
  C       21.566     -83.672    -119.297
  O       21.690     -82.506    -119.678
  N       21.501     -84.702    -120.199
  C       21.263     -85.907    -119.784
  N       21.188     -86.882    -120.729
  C       21.069     -86.246    -118.361
  C       21.172     -85.235    -117.501
  O       15.992     -83.660    -115.819
  O       16.527     -83.420    -113.294
  H       19.786     -80.296    -118.392
  H       15.893     -84.628    -115.647
  H       20.856     -87.262    -118.065
  H       21.041     -85.391    -116.435
  H       22.441     -82.320    -117.115
  H       19.407     -82.383    -117.533
  H       19.138     -80.818    -115.800
  H       21.272     -81.814    -114.184
  H       21.316     -86.610    -121.695
  H       19.736     -83.792    -113.717
  H       20.978     -87.848    -120.522
  H       19.017     -82.182    -113.452
  P       20.426     -78.732    -115.115
  C       20.197     -77.373    -117.311
  O       20.791     -77.459    -116.025
  O       21.344     -78.555    -113.818
  O       18.979     -78.865    -114.775
  H       20.898     -78.919    -113.032
  H       20.529     -76.480    -117.798
  H       19.132     -77.350    -117.211
  H       20.482     -78.224    -117.893

 6  7  8  9  10  11  12  13  14  15  16  26  30  31  32  33  35 0
 6-311+G(2d,p)
 ****
 37  38 0
 6-311+G(2d,p)
 ****
 1  2  3  4  5  17  18  19  20  21  22  23  24  25 0
 3-21G
 ****
 27  28  29  34  36  39  40  41  42  43  44  45  46 0
 3-21G
 ****


