%nproc=1
%NoSave
%Mem=1900MB
#P OB98/GEN NMR

erre ene a

0 1
  C     -259.023     576.234     -71.634
  O     -258.775     574.847     -71.808
  P     -259.086     573.780     -70.649
  C     -259.958     571.977     -72.283
  O     -258.960     572.340     -71.346
  C     -259.640     570.608     -72.893
  O     -258.431     570.724     -73.692
  C     -259.405     569.496     -71.864
  O     -259.919     568.281     -72.421
  C     -257.893     569.442     -71.759
  O     -257.424     568.202     -71.260
  C     -257.495     569.740     -73.207
  N     -256.122     570.224     -73.325
  C     -255.110     569.272     -73.430
  O     -255.361     568.067     -73.409
  N     -253.814     569.704     -73.571
  C     -253.546     570.975     -73.515
  N     -252.257     571.360     -73.712
  C     -254.579     572.009     -73.291
  C     -255.829     571.566     -73.229
  O     -260.366     574.012     -69.917
  O     -257.787     573.813     -69.719
  H     -256.462     568.267     -71.117
  H     -257.816     574.532     -69.042
  H     -254.302     573.047     -73.226
  H     -256.653     572.251     -73.097
  H     -257.627     568.844     -73.829
  H     -257.545     570.230     -71.082
  H     -259.906     569.696     -70.910
  H     -260.456     570.337     -73.573
  H     -251.610     570.643     -74.032
  H     -259.970     572.723     -73.084
  H     -252.031     572.302     -74.008
  H     -260.938     571.975     -71.802
  P     -260.412     567.125     -71.417
  C     -262.143     566.412     -73.210
  O     -261.163     566.004     -72.282
  O     -261.636     567.850     -70.668
  O     -259.413     566.652     -70.409
  H     -261.758     567.440     -69.792
  H     -262.544     565.525     -73.710
  H     -261.701     567.064     -73.969
  H     -262.960     566.928     -72.703
  H     -258.746     576.760     -72.524
  H     -258.446     576.599     -70.810
  H     -260.063     576.388     -71.437

 3  4  5  6  7  8  9  10  11  12  13  23  27  28  29  30  32 0
 6-311+G(2d,p)
 ****
 34  35 0
 6-311+G(2d,p)
 ****
 1  2  14  15  16  17  18  19  20  21  22  24  25  26 0
 3-21G
 ****
 31  33  36  37  38  39  40  41  42  43  44  45  46 0
 3-21G
 ****


