%nproc=1
%NoSave
%Mem=1900MB
#P OB98/GEN NMR

erre ene a

0 1
  C       -1.171     -17.728     -24.097
  O       -2.501     -17.447     -23.724
  H       -0.886     -17.063     -24.916
  H       -1.091     -18.761     -24.445
  H       -0.491     -17.564     -23.257
  P       -3.081     -18.199     -22.431
  C       -2.822     -17.822     -19.876
  O       -2.782     -17.246     -21.173
  C       -2.899     -16.727     -18.810
  O       -1.708     -15.903     -18.900
  C       -4.117     -15.813     -18.956
  O       -4.605     -15.489     -17.650
  C       -3.553     -14.564     -19.608
  O       -4.333     -13.400     -19.335
  C       -2.129     -14.532     -19.038
  N       -1.226     -13.771     -19.896
  C       -1.130     -12.399     -19.646
  O       -1.794     -11.886     -18.744
  N       -0.332     -11.632     -20.454
  C        0.252     -12.171     -21.479
  N        1.005     -11.353     -22.261
  C        0.124     -13.601     -21.822
  C       -0.616     -14.336     -20.992
  O       -2.063     -19.413     -22.220
  O       -4.498     -18.655     -22.538
  H       -3.871     -12.623     -19.719
  H       -2.513     -20.190     -21.837
  H        0.608     -13.999     -22.701
  H       -0.773     -15.393     -21.166
  H       -2.125     -14.083     -18.036
  H       -3.523     -14.700     -20.696
  H       -4.923     -16.258     -19.545
  H       -2.883     -17.203     -17.823
  H        1.054     -10.374     -22.003
  H       -1.911     -18.407     -19.718
  H        1.466     -11.654     -23.107
  H       -3.687     -18.488     -19.800
  P       -6.073     -16.015     -17.279
  C       -6.747     -18.490     -17.683
  O       -5.970     -17.575     -16.923
  O       -6.839     -15.994     -18.683
  O       -6.768     -15.176     -16.258
  H       -7.491     -15.270     -18.697
  H       -6.573     -19.485     -17.330
  H       -6.469     -18.423     -18.714
  H       -7.785     -18.251     -17.577

 6  7  8  9  10  11  12  13  14  15  16  26  30  31  32  33  35 0
 6-311+G(2d,p)
 ****
 37  38 0
 6-311+G(2d,p)
 ****
 1  2  3  4  5  17  18  19  20  21  22  23  24  25 0
 3-21G
 ****
 27  28  29  34  36  39  40  41  42  43  44  45  46 0
 3-21G
 ****


