%nproc=1
%NoSave
%Mem=1900MB
#P OB98/GEN NMR

erre ene a

0 1
  C      248.192      35.807     517.488
  O      247.741      35.317     518.760
  P      248.612      35.487     520.100
  C      247.932      37.966     520.342
  O      249.013      37.035     520.254
  C      247.903      38.678     521.694
  O      249.154      39.365     521.936
  C      246.817      39.739     521.833
  O      245.562      39.131     522.095
  C      247.367      40.592     522.968
  O      247.085      39.983     524.238
  C      248.875      40.566     522.682
  N      249.076      45.678     522.668
  C      248.578      44.796     523.566
  N      248.556      43.444     523.496
  C      249.152      43.022     522.362
  C      249.706      43.803     521.361
  C      249.652      45.197     521.543
  N      250.149      46.092     520.622
  N      250.201      43.015     520.342
  C      249.969      41.777     520.737
  N      249.340      41.730     521.950
  O      249.764      34.544     520.207
  O      247.569      35.253     521.293
  H      247.669      40.395     524.898
  H      248.041      34.906     522.077
  H      248.140      45.230     524.456
  H      250.236      40.889     520.182
  H      249.459      40.502     523.606
  H      246.937      41.602     522.986
  H      246.760      40.340     520.917
  H      247.798      37.917     522.476
  H      246.992      37.413     520.196
  H      250.042      47.079     520.811
  H      250.534      45.747     519.755
  H      248.039      38.697     519.533
  P      244.547      38.836     520.890
  C      244.809      36.283     520.846
  O      245.049      37.499     520.164
  O      244.266      39.986     519.987
  O      243.212      38.342     521.634
  H      242.438      38.579     521.092
  H      245.564      36.143     521.621
  H      244.877      35.457     520.133
  H      243.814      36.278     521.303
  H      247.459      35.586     516.740
  H      249.117      35.334     517.231
  H      248.336      36.866     517.544

 3  4  5  6  7  8  9  10  11  12  22  25  29  30  31  32 0
 6-311+G(2d,p)
 ****
 33  36  37 0
 6-311+G(2d,p)
 ****
 1  2  13  14  15  16  17  18  19  20  21  23  24  26 0
 3-21G
 ****
 27  28  34  35  38  39  40  41  42  43  44  45  46  47  48 0
 3-21G
 ****


