%nproc=1
%NoSave
%Mem=1900MB
#P OB98/GEN NMR

erre ene a

0 1
  C     -317.086      10.903    -149.194
  O     -318.265      10.347    -149.739
  H     -317.360      11.773    -148.589
  H     -316.419      11.232    -149.993
  H     -316.575      10.180    -148.552
  P     -318.158       8.993    -150.592
  C     -320.671       8.768    -150.095
  O     -319.648       8.630    -151.069
  C     -321.922       7.998    -150.514
  O     -322.664       8.796    -151.472
  C     -321.619       6.642    -151.165
  O     -322.613       5.708    -150.746
  C     -321.776       6.923    -152.648
  O     -322.127       5.753    -153.386
  C     -322.865       7.996    -152.652
  N     -324.180       8.255    -157.524
  C     -324.479       7.303    -156.568
  N     -325.222       6.249    -156.973
  N     -324.085       7.377    -155.323
  C     -323.364       8.493    -155.053
  C     -322.998       9.504    -155.912
  C     -323.428       9.404    -157.289
  O     -323.182      10.206    -158.184
  N     -322.239      10.452    -155.267
  C     -322.146      10.011    -154.028
  N     -322.801       8.821    -153.848
  O     -317.432       7.869    -149.924
  O     -317.437       9.443    -151.946
  H     -321.310       5.215    -153.478
  H     -316.488       9.216    -151.924
  H     -324.501       8.143    -158.469
  H     -321.612      10.507    -153.226
  H     -323.873       7.566    -152.615
  H     -320.834       7.316    -153.051
  H     -325.574       6.133    -157.908
  H     -320.623       6.262    -150.920
  H     -325.474       5.550    -156.281
  H     -322.565       7.876    -149.635
  H     -320.910       9.835    -149.998
  H     -320.306       8.399    -149.130
  P     -322.175       4.488    -149.804
  C     -324.305       4.820    -148.392
  O     -323.493       3.895    -149.106
  O     -321.034       4.761    -148.879
  O     -321.800       3.340    -150.863
  H     -321.107       2.771    -150.475
  H     -325.147       4.308    -147.975
  H     -324.646       5.584    -149.059
  H     -323.732       5.264    -147.605

 6  7  8  9  10  11  12  13  14  15  26  29  33  34 0
 6-311+G(2d,p)
 ****
 36  38  39  40  41 0
 6-311+G(2d,p)
 ****
 1  2  3  4  5  16  17  18  19  20  21  22  23  24  25 0
 3-21G
 ****
 27  28  30  31  32  35  37  42  43  44  45  46  47 0
 3-21G
 ****
 48  49 0
 3-21G
 ****


