%nproc=1
%NoSave
%Mem=1900MB
#P OB98/GEN NMR

erre ene a

0 1
  C      210.999    -694.352     -29.925
  O      211.695    -695.433     -30.534
  P      211.229    -696.933     -30.179
  C      209.650    -697.376     -32.175
  O      209.751    -697.174     -30.769
  C      208.334    -698.083     -32.541
  O      208.414    -699.464     -32.095
  C      207.081    -697.514     -31.859
  O      206.379    -696.463     -32.526
  C      206.156    -698.723     -31.861
  O      205.495    -698.830     -33.132
  C      207.099    -699.903     -31.664
  N      204.817    -702.864     -28.168
  C      204.515    -702.607     -29.475
  N      205.160    -701.796     -30.315
  C      206.261    -701.245     -29.739
  C      206.665    -701.422     -28.424
  C      205.889    -702.261     -27.611
  N      206.182    -702.520     -26.294
  N      207.819    -700.684     -28.175
  C      208.070    -700.052     -29.317
  N      207.155    -700.377     -30.292
  O      211.434    -697.363     -28.765
  O      212.138    -697.818     -31.171
  H      205.160    -697.934     -33.335
  H      212.419    -698.632     -30.723
  H      203.637    -703.104     -29.878
  H      208.887    -699.369     -29.472
  H      206.834    -700.758     -32.295
  H      205.368    -698.650     -31.108
  H      207.295    -697.204     -30.818
  H      208.205    -698.089     -33.622
  H      210.491    -697.967     -32.539
  H      205.547    -703.111     -25.779
  H      206.956    -702.044     -25.862
  H      209.728    -696.391     -32.649
  P      206.766    -694.924     -32.298
  C      206.992    -694.510     -34.882
  O      207.601    -694.487     -33.600
  O      207.445    -694.625     -30.999
  O      205.371    -694.176     -32.486
  H      205.022    -694.192     -33.401
  H      207.627    -693.998     -35.590
  H      205.999    -694.041     -34.861
  H      206.888    -695.563     -35.212
  H      211.420    -693.425     -30.256
  H      211.088    -694.425     -28.861
  H      209.966    -694.393     -30.200

 3  4  5  6  7  8  9  10  11  12  22  25  29  30  31  32 0
 6-311+G(2d,p)
 ****
 33  36  37 0
 6-311+G(2d,p)
 ****
 1  2  13  14  15  16  17  18  19  20  21  23  24  26 0
 3-21G
 ****
 27  28  34  35  38  39  40  41  42  43  44  45  46  47  48 0
 3-21G
 ****


