%nproc=1
%NoSave
%Mem=1900MB
#P OB98/GEN NMR

erre ene a

0 1
  C      465.819      26.792      99.216
  O      466.355      28.091      99.349
  P      467.886      28.375      99.716
  C      468.160      29.775      97.542
  O      468.671      28.727      98.357
  C      469.245      30.471      96.705
  O      469.858      29.514      95.818
  C      468.612      31.547      95.812
  O      468.347      32.835      96.330
  C      469.437      31.530      94.530
  O      470.432      32.558      94.506
  C      470.096      30.148      94.552
  N      471.092      28.206      89.968
  C      471.947      28.853      90.843
  N      473.161      29.190      90.357
  N      471.624      29.160      92.074
  C      470.344      28.853      92.390
  C      469.412      28.199      91.616
  C      469.795      27.830      90.272
  O      469.044      27.331      89.437
  N      468.192      28.119      92.240
  C      468.371      28.758      93.378
  N      469.647      29.259      93.497
  O      468.529      27.444     100.696
  O      467.779      29.823     100.425
  H      470.906      32.494      93.654
  H      468.455      29.856     101.126
  H      471.376      28.065      89.006
  H      467.606      28.921      94.126
  H      471.185      30.239      94.450
  H      468.795      31.695      93.654
  H      473.391      29.094      89.372
  H      467.625      31.172      95.514
  H      473.746      29.807      90.906
  H      470.053      30.848      97.343
  H      467.660      30.491      98.201
  H      467.396      29.373      96.867
  P      467.049      33.274      97.161
  C      468.206      34.319      99.190
  O      467.409      33.242      98.721
  O      466.041      32.038      97.003
  O      466.398      34.535      96.689
  H      465.126      32.335      97.159
  H      468.635      34.047     100.159
  H      467.581      35.211      99.318
  H      469.018      34.539      98.487
  H      464.780      26.858      98.968
  H      465.932      26.263     100.139
  H      466.338      26.270      98.440

 3  4  5  6  7  8  9  10  11  12  23  26  30  31 0
 6-311+G(2d,p)
 ****
 33  35  36  37  38 0
 6-311+G(2d,p)
 ****
 1  2  13  14  15  16  17  18  19  20  21  22  24  25 0
 3-21G
 ****
 27  28  29  32  34  39  40  41  42  43  44  45  46  47  48  49 0
 3-21G
 ****


