%nproc=1
%NoSave
%Mem=1900MB
#P OB98/GEN NMR

erre ene a

0 1
  C      487.008     410.017    -899.430
  O      486.856     410.211    -898.040
  H      486.540     409.077    -899.710
  H      488.073     409.968    -899.680
  H      486.539     410.825    -900.000
  P      487.135     411.664    -897.430
  C      484.803     412.008    -896.370
  O      485.718     412.428    -897.370
  C      483.789     413.111    -896.050
  O      484.495     414.336    -895.700
  C      482.933     413.433    -897.280
  O      481.639     413.915    -896.930
  C      483.716     414.561    -897.950
  O      482.913     415.348    -898.830
  C      484.252     415.313    -896.750
  N      486.521     419.864    -896.760
  C      485.190     419.548    -896.540
  N      484.355     420.596    -896.320
  N      484.717     418.325    -896.550
  C      485.665     417.404    -896.860
  C      486.999     417.583    -897.120
  C      487.522     418.943    -897.060
  O      488.679     419.285    -897.270
  N      487.629     416.408    -897.420
  C      486.679     415.503    -897.350
  N      485.459     416.051    -897.000
  O      487.892     412.437    -898.610
  O      487.924     411.689    -896.160
  H      482.206     415.760    -898.300
  H      488.442     413.156    -898.240
  H      486.832     420.826    -896.720
  H      486.806     414.434    -897.530
  H      483.507     416.010    -896.370
  H      484.505     414.106    -898.560
  H      484.633     421.542    -896.470
  H      482.824     412.565    -897.940
  H      483.351     420.413    -896.440
  H      483.186     412.828    -895.180
  H      485.376     411.769    -895.480
  H      484.283     411.098    -896.690
  P      480.379     412.997    -897.300
  C      480.010     412.512    -894.730
  O      480.132     412.008    -896.050
  O      480.930     412.031    -898.460
  O      479.175     413.755    -897.720
  H      480.579     412.302    -899.320
  H      479.851     411.700    -894.051
  H      479.180     413.186    -894.681
  H      480.907     413.031    -894.462

 6  7  8  9  10  11  12  13  14  15  26  29  33  34 0
 6-311+G(2d,p)
 ****
 36  38  39  40  41 0
 6-311+G(2d,p)
 ****
 1  2  3  4  5  16  17  18  19  20  21  22  23  24  25 0
 3-21G
 ****
 27  28  30  31  32  35  37  42  43  44  45  46  47 0
 3-21G
 ****
 48  49 0
 3-21G
 ****


