%nproc=1
%NoSave
%Mem=1900MB
#P OB98/GEN NMR

erre ene a

0 1
  C      155.421    -726.579      55.589
  O      155.986    -727.187      56.733
  H      155.620    -727.216      54.722
  H      155.881    -725.601      55.413
  H      154.340    -726.464      55.699
  P      155.709    -726.534      58.170
  C      155.400    -724.128      59.045
  O      155.918    -724.952      58.013
  C      156.240    -722.854      59.166
  O      156.638    -722.397      57.857
  C      155.504    -721.690      59.813
  O      155.417    -721.850      61.215
  C      156.363    -720.522      59.358
  O      157.535    -720.390      60.182
  C      156.746    -720.954      57.922
  N      155.925    -720.312      56.899
  C      156.296    -719.026      56.519
  O      157.238    -718.418      57.030
  N      155.520    -718.443      55.552
  C      154.377    -718.960      55.021
  O      153.667    -718.359      54.222
  C      154.020    -720.312      55.474
  C      154.800    -720.919      56.375
  O      156.431    -727.156      59.315
  O      154.121    -726.665      58.342
  H      158.125    -719.765      59.717
  H      153.920    -727.383      58.971
  H      155.766    -717.505      55.277
  H      153.125    -720.764      55.070
  H      154.548    -721.915      56.726
  H      157.800    -720.710      57.719
  H      155.831    -719.571      59.403
  H      154.508    -721.584      59.374
  H      157.153    -723.100      59.730
  H      155.440    -724.679      59.991
  H      154.355    -723.884      58.820
  P      154.427    -720.926      62.063
  C      153.928    -718.414      62.253
  O      154.857    -719.400      61.826
  O      154.251    -721.318      63.492
  O      153.039    -721.035      61.272
  H      152.354    -721.410      61.864
  H      154.320    -717.440      62.045
  H      153.760    -718.514      63.305
  H      153.003    -718.545      61.731

 6  7  8  9  10  11  12  13  14  15  16  26  31  32  33  34  35 0
 6-311+G(2d,p)
 ****
 36  37 0
 6-311+G(2d,p)
 ****
 1  2  3  4  5  17  18  19  20  21  22  23  24  25 0
 3-21G
 ****
 27  28  29  30  38  39  40  41  42  43  44  45 0
 3-21G
 ****


