%nproc=1
%NoSave
%Mem=1900MB
#P OB98/GEN NMR

erre ene a

0 1
  C     -497.946     258.125     -64.886
  O     -498.878     259.184     -64.672
  P     -498.953     259.780     -63.187
  C     -498.447     262.202     -63.981
  O     -498.053     261.115     -63.150
  C     -497.297     263.221     -64.110
  O     -496.173     262.695     -64.829
  C     -497.708     264.487     -64.846
  O     -498.426     265.355     -63.968
  C     -496.350     265.053     -65.260
  O     -495.757     265.815     -64.198
  C     -495.516     263.779     -65.533
  N     -492.834     264.490     -69.781
  C     -492.759     265.141     -68.556
  N     -491.803     266.098     -68.446
  N     -493.538     264.869     -67.550
  C     -494.434     263.892     -67.794
  C     -494.589     263.160     -68.954
  C     -493.718     263.472     -70.075
  O     -493.740     262.916     -71.167
  N     -495.575     262.207     -68.821
  C     -496.090     262.457     -67.629
  N     -495.394     263.417     -66.943
  O     -498.107     258.726     -62.317
  O     -500.344     259.933     -62.676
  H     -496.410     266.467     -63.871
  H     -498.707     258.227     -61.740
  H     -492.224     264.745     -70.518
  H     -496.942     261.943     -67.208
  H     -494.508     263.857     -65.150
  H     -496.436     265.724     -66.112
  H     -491.175     266.351     -69.181
  H     -498.297     264.249     -65.729
  H     -491.734     266.577     -67.547
  H     -496.974     263.477     -63.085
  H     -499.326     262.702     -63.568
  H     -498.720     261.819     -64.965
  P     -499.966     265.024     -63.695
  C     -499.585     264.652     -61.156
  O     -500.037     264.114     -62.390
  O     -500.341     264.022     -64.895
  O     -500.873     266.216     -63.693
  H     -501.213     264.272     -65.262
  H     -500.153     264.165     -60.340
  H     -499.734     265.729     -61.106
  H     -498.522     264.419     -61.034
  H     -497.988     257.814     -65.909
  H     -498.192     257.299     -64.252
  H     -496.958     258.468     -64.658

 3  4  5  6  7  8  9  10  11  12  23  26  30  31 0
 6-311+G(2d,p)
 ****
 33  35  36  37  38 0
 6-311+G(2d,p)
 ****
 1  2  13  14  15  16  17  18  19  20  21  22  24  25 0
 3-21G
 ****
 27  28  29  32  34  39  40  41  42  43  44  45  46  47  48  49 0
 3-21G
 ****


