%nproc=1
%NoSave
%Mem=1900MB
#P OB98/GEN NMR

erre ene a

0 1
  C       62.860    -167.695     -19.623
  O       61.602    -167.103     -19.881
  P       60.341    -167.420     -18.949
  C       59.975    -169.562     -20.307
  O       59.363    -168.395     -19.772
  C       59.601    -169.761     -21.774
  O       60.203    -170.996     -22.254
  C       58.092    -169.856     -22.046
  O       57.865    -169.259     -23.328
  C       57.857    -171.354     -22.131
  O       56.661    -171.689     -22.825
  C       59.141    -171.790     -22.827
  N       58.311    -176.507     -24.618
  C       57.834    -175.304     -25.003
  N       58.083    -174.095     -24.457
  C       58.921    -174.207     -23.414
  C       59.465    -175.367     -22.886
  C       59.144    -176.565     -23.549
  N       59.647    -177.797     -23.191
  N       60.232    -175.077     -21.773
  C       60.152    -173.769     -21.635
  N       59.424    -173.195     -22.641
  O       59.673    -166.227     -18.352
  O       60.932    -168.379     -17.811
  H       56.643    -172.656     -22.957
  H       61.014    -167.886     -16.972
  H       57.171    -175.312     -25.861
  H       60.595    -173.193     -20.836
  H       59.115    -171.590     -23.906
  H       57.790    -171.773     -21.120
  H       57.471    -169.375     -21.282
  H       60.042    -168.943     -22.356
  H       59.628    -170.422     -19.727
  H       59.460    -178.567     -23.814
  H       60.462    -177.837     -22.582
  H       61.064    -169.491     -20.201
  P       57.142    -167.832     -23.432
  C       54.944    -168.931     -22.714
  O       55.589    -168.125     -23.685
  O       57.774    -166.862     -24.376
  O       57.167    -167.292     -21.922
  H       57.009    -166.326     -21.918
  H       55.167    -169.984     -22.910
  H       53.864    -168.776     -22.784
  H       55.275    -168.672     -21.704
  H       63.568    -167.360     -20.352
  H       62.771    -168.760     -19.676
  H       63.193    -167.413     -18.646

 3  4  5  6  7  8  9  10  11  12  22  25  29  30  31  32 0
 6-311+G(2d,p)
 ****
 33  36  37 0
 6-311+G(2d,p)
 ****
 1  2  13  14  15  16  17  18  19  20  21  23  24  26 0
 3-21G
 ****
 27  28  34  35  38  39  40  41  42  43  44  45  46  47  48 0
 3-21G
 ****


