%nproc=1
%NoSave
%Mem=1900MB
#P OB98/GEN NMR

erre ene a

0 1
  C      194.572    -205.911      85.747
  O      194.066    -205.541      87.035
  P      194.274    -204.005      87.459
  C      192.464    -202.755      86.089
  O      192.849    -203.271      87.354
  C      191.041    -202.185      86.123
  O      190.096    -203.168      86.648
  C      190.901    -200.925      86.987
  O      189.920    -200.093      86.358
  C      190.333    -201.469      88.286
  O      189.729    -200.438      89.065
  C      189.377    -202.525      87.727
  N      186.096    -203.412      91.459
  C      186.321    -202.264      90.729
  N      185.521    -201.210      90.997
  N      187.248    -202.157      89.815
  C      187.949    -203.302      89.624
  C      187.811    -204.509      90.276
  C      186.801    -204.604      91.309
  O      186.556    -205.597      91.981
  N      188.684    -205.451      89.781
  C      189.391    -204.783      88.884
  N      188.948    -203.499      88.711
  O      195.109    -203.400      86.236
  O      194.987    -203.834      88.758
  H      189.120    -199.942      88.475
  H      196.053    -203.338      86.469
  H      185.378    -203.434      92.168
  H      190.214    -205.187      88.317
  H      188.461    -202.080      87.315
  H      191.125    -201.934      88.881
  H      184.752    -201.241      91.655
  H      191.833    -200.371      87.132
  H      185.634    -200.367      90.448
  H      190.737    -201.961      85.093
  H      192.512    -203.545      85.335
  H      193.186    -201.994      85.776
  P      190.402    -198.688      85.754
  C      191.843    -199.177      83.660
  O      190.559    -198.876      84.171
  O      191.918    -198.577      86.271
  O      189.596    -197.508      86.197
  H      192.109    -197.650      86.517
  H      191.727    -199.719      82.715
  H      192.420    -199.799      84.351
  H      192.389    -198.251      83.468
  H      194.379    -206.949      85.573
  H      195.627    -205.734      85.714
  H      194.088    -205.327      84.992

 3  4  5  6  7  8  9  10  11  12  23  26  30  31 0
 6-311+G(2d,p)
 ****
 33  35  36  37  38 0
 6-311+G(2d,p)
 ****
 1  2  13  14  15  16  17  18  19  20  21  22  24  25 0
 3-21G
 ****
 27  28  29  32  34  39  40  41  42  43  44  45  46  47  48  49 0
 3-21G
 ****


