%nproc=1
%NoSave
%Mem=1900MB
#P OB98/GEN NMR

erre ene a

0 1
  C     -576.360     623.772    -769.665
  O     -575.078     624.130    -770.166
  P     -573.905     623.033    -770.275
  C     -572.027     622.176    -768.744
  O     -573.030     623.177    -768.936
  C     -571.187     622.498    -767.502
  O     -570.325     623.625    -767.793
  C     -572.038     622.873    -766.274
  O     -571.395     622.359    -765.101
  C     -571.964     624.395    -766.228
  O     -572.175     624.884    -764.893
  C     -570.580     624.657    -766.811
  N     -569.235     629.584    -766.292
  C     -569.168     628.535    -765.436
  N     -569.564     627.264    -765.631
  C     -570.037     627.102    -766.888
  C     -570.148     628.070    -767.865
  C     -569.728     629.371    -767.528
  N     -569.778     630.434    -768.410
  N     -570.683     627.535    -769.018
  C     -570.875     626.255    -768.739
  N     -570.469     625.944    -767.469
  O     -573.117     623.089    -771.541
  O     -574.641     621.637    -770.091
  H     -572.086     625.863    -764.928
  H     -574.242     620.957    -770.684
  H     -568.748     628.763    -764.458
  H     -571.290     625.524    -769.420
  H     -569.799     624.594    -766.047
  H     -572.760     624.816    -766.866
  H     -573.070     622.497    -766.342
  H     -570.549     621.638    -767.281
  H     -571.375     622.160    -769.618
  H     -569.343     631.292    -768.117
  H     -569.994     630.240    -769.383
  H     -572.505     621.189    -768.651
  P     -572.390     621.908    -763.905
  C     -572.734     622.891    -761.518
  O     -572.332     623.120    -762.853
  O     -572.069     620.541    -763.408
  O     -573.812     622.046    -764.627
  H     -573.796     622.695    -765.369
  H     -572.657     623.843    -760.966
  H     -572.077     622.152    -761.031
  H     -573.769     622.537    -761.472
  H     -576.998     624.631    -769.670
  H     -576.262     623.406    -768.664
  H     -576.784     623.009    -770.284

 3  4  5  6  7  8  9  10  11  12  22  25  29  30  31  32 0
 6-311+G(2d,p)
 ****
 33  36  37 0
 6-311+G(2d,p)
 ****
 1  2  13  14  15  16  17  18  19  20  21  23  24  26 0
 3-21G
 ****
 27  28  34  35  38  39  40  41  42  43  44  45  46  47  48 0
 3-21G
 ****


