%nproc=1
%NoSave
%Mem=1900MB
#P OB98/GEN NMR

erre ene a

0 1
  C      -55.692      38.997     458.763
  O      -55.091      39.975     459.593
  H      -55.663      39.352     457.727
  H      -56.737      38.838     459.041
  H      -55.142      38.057     458.828
  P      -55.154      39.760     461.179
  C      -57.115      41.431     461.435
  O      -56.662      40.089     461.602
  C      -58.630      41.454     461.244
  O      -58.999      40.678     460.087
  C      -59.392      40.844     462.414
  O      -59.428      41.733     463.515
  C      -60.732      40.555     461.762
  O      -61.539      41.734     461.684
  C      -60.294      40.084     460.356
  N      -60.241      38.633     460.232
  C      -61.448      37.954     460.426
  O      -62.480      38.575     460.672
  N      -61.446      36.581     460.350
  C      -60.347      35.945     460.093
  N      -60.414      34.589     460.031
  C      -59.054      36.625     459.870
  C      -59.074      37.953     459.958
  O      -54.115      40.469     461.998
  O      -55.065      38.168     461.349
  H      -62.449      41.425     461.513
  H      -54.137      37.883     461.421
  H      -58.160      36.049     459.651
  H      -58.165      38.531     459.810
  H      -60.981      40.472     459.592
  H      -61.294      39.806     462.320
  H      -58.939      39.886     462.703
  H      -58.942      42.492     461.068
  H      -61.318      34.167     460.205
  H      -56.615      41.835     460.550
  H      -59.644      33.996     459.755
  H      -56.836      42.043     462.302
  P      -59.067      41.223     464.991
  C      -61.540      40.667     465.488
  O      -60.211      40.158     465.364
  O      -58.835      42.295     466.002
  O      -57.779      40.293     464.746
  H      -56.975      40.830     464.558
  H      -62.206      39.868     465.737
  H      -61.841      41.107     464.560
  H      -61.568      41.408     466.260

 6  7  8  9  10  11  12  13  14  15  16  26  30  31  32  33  35 0
 6-311+G(2d,p)
 ****
 37  38 0
 6-311+G(2d,p)
 ****
 1  2  3  4  5  17  18  19  20  21  22  23  24  25 0
 3-21G
 ****
 27  28  29  34  36  39  40  41  42  43  44  45  46 0
 3-21G
 ****


