%nproc=1
%NoSave
%Mem=1900MB
#P OB98/GEN NMR

erre ene a

0 1
  C      457.350    -456.772    -594.887
  O      456.733    -456.164    -596.003
  H      457.151    -457.845    -594.922
  H      456.936    -456.372    -593.957
  H      458.432    -456.616    -594.916
  P      456.871    -454.575    -596.183
  C      459.253    -454.492    -597.207
  O      458.453    -454.303    -596.051
  C      460.290    -453.379    -597.317
  O      459.667    -452.083    -597.496
  C      461.180    -453.206    -596.089
  O      462.158    -454.228    -595.941
  C      461.798    -451.854    -596.399
  O      462.810    -452.006    -597.410
  C      460.569    -451.088    -596.944
  N      459.899    -450.297    -595.916
  C      459.954    -448.906    -596.057
  O      460.555    -448.392    -597.000
  N      459.360    -448.118    -595.097
  C      458.777    -448.669    -594.079
  N      458.212    -447.842    -593.156
  C      458.707    -450.133    -593.884
  C      459.280    -450.879    -594.826
  O      455.996    -453.736    -595.305
  O      456.632    -454.324    -597.747
  H      463.515    -452.561    -597.023
  H      456.697    -453.351    -597.910
  H      458.236    -450.540    -592.997
  H      459.279    -451.960    -594.748
  H      460.859    -450.425    -597.771
  H      462.272    -451.387    -595.538
  H      460.574    -453.112    -595.177
  H      460.885    -453.574    -598.221
  H      458.275    -446.843    -593.319
  H      458.590    -454.497    -598.080
  H      457.806    -448.181    -592.296
  H      459.773    -455.446    -597.151
  P      462.693    -454.509    -594.454
  C      460.560    -455.927    -593.931
  O      461.399    -454.844    -593.565
  O      463.145    -453.057    -593.949
  O      463.782    -455.523    -594.352
  H      464.114    -452.953    -594.041
  H      459.753    -456.004    -593.233
  H      461.126    -456.835    -593.924
  H      460.168    -455.759    -594.912

 6  7  8  9  10  11  12  13  14  15  16  26  30  31  32  33  35 0
 6-311+G(2d,p)
 ****
 37  38 0
 6-311+G(2d,p)
 ****
 1  2  3  4  5  17  18  19  20  21  22  23  24  25 0
 3-21G
 ****
 27  28  29  34  36  39  40  41  42  43  44  45  46 0
 3-21G
 ****


