%nproc=1
%NoSave
%Mem=1900MB
#P OB98/GEN NMR

erre ene a

0 1
  C      118.138     -91.800    -409.675
  O      118.631     -90.489    -409.377
  P      118.527     -90.020    -407.839
  C      121.066     -90.037    -407.268
  O      119.789     -90.633    -407.046
  C      122.165     -90.734    -406.455
  O      121.782     -90.769    -405.066
  C      122.451     -92.180    -406.880
  O      123.860     -92.424    -406.763
  C      121.757     -93.005    -405.811
  O      122.302     -94.316    -405.700
  C      121.977     -92.111    -404.591
  N      121.361     -94.746    -400.313
  C      122.481     -94.596    -401.102
  N      123.588     -95.266    -400.706
  N      122.514     -93.865    -402.183
  C      121.351     -93.224    -402.431
  C      120.172     -93.276    -401.723
  C      120.134     -94.131    -400.555
  O      119.161     -94.337    -399.844
  N      119.198     -92.488    -402.298
  C      119.785     -91.961    -403.358
  N      121.089     -92.386    -403.490
  O      117.283     -90.862    -407.285
  O      118.317     -88.556    -407.667
  H      123.212     -94.223    -405.360
  H      116.613     -90.262    -406.920
  H      121.378     -95.340    -399.503
  H      119.319     -91.300    -404.064
  H      123.014     -92.193    -404.221
  H      120.693     -93.102    -406.057
  H      123.644     -95.801    -399.859
  H      122.111     -92.436    -407.891
  H      124.432     -95.140    -401.257
  H      123.076     -90.133    -406.533
  H      121.029     -88.986    -406.982
  H      121.290     -90.091    -408.338
  P      124.706     -92.428    -408.130
  C      126.050     -90.281    -407.525
  O      125.115     -90.898    -408.390
  O      123.599     -92.717    -409.247
  O      125.817     -93.421    -408.162
  H      124.002     -93.149    -410.021
  H      126.544     -90.999    -406.867
  H      125.534     -89.541    -406.907
  H      126.812     -89.774    -408.131
  H      118.259     -91.998    -410.720
  H      117.101     -91.858    -409.419
  H      118.686     -92.524    -409.109

 3  4  5  6  7  8  9  10  11  12  23  26  30  31  33  0
 6-311+G(2d,p)
 ****
 35  36  37  38 0
 6-311+G(2d,p)
 ****
 1  2  13  14  15  16  17  18  19  20  21  22  24  25  27  28  29 0
 3-21G
 ****
 32  34  39  40  41  42  43  44  45  46  47  48  49 0
 3-21G
 ****


