%nproc=1
%NoSave
%Mem=1900MB
#P OB98/GEN NMR

erre ene a

0 1
  C     -441.947      35.297     -11.997
  O     -441.656      33.915     -12.066
  H     -441.460      35.800     -12.838
  H     -441.577      35.732     -11.065
  H     -443.030      35.458     -12.078
  P     -442.045      33.000     -10.805
  C     -439.618      33.239      -9.948
  O     -441.003      33.398      -9.645
  C     -438.743      33.935      -8.900
  O     -438.997      35.354      -8.907
  C     -439.023      33.488      -7.473
  O     -438.622      32.163      -7.193
  C     -438.454      34.637      -6.652
  O     -437.059      34.509      -6.388
  C     -438.700      35.848      -7.585
  N     -439.756      36.720      -7.081
  C     -439.391      37.579      -6.050
  O     -438.261      37.612      -5.560
  N     -440.384      38.387      -5.565
  C     -441.688      38.378      -5.967
  O     -442.544      39.098      -5.465
  C     -442.021      37.428      -7.045
  C     -441.054      36.653      -7.546
  O     -442.119      31.526     -11.070
  O     -443.420      33.630     -10.287
  H     -436.792      35.291      -5.865
  H     -443.896      33.004      -9.689
  H     -440.137      39.025      -4.827
  H     -443.046      37.391      -7.387
  H     -441.276      35.941      -8.337
  H     -437.785      36.447      -7.673
  H     -438.955      34.724      -5.686
  H     -440.111      33.510      -7.319
  H     -437.691      33.774      -9.166
  H     -439.436      33.698     -10.926
  H     -439.373      32.173     -10.003
  P     -439.513      31.137      -6.351
  C     -438.277      31.239      -4.069
  O     -439.449      31.567      -4.804
  O     -439.378      29.688      -6.698
  O     -441.003      31.593      -6.769
  H     -441.561      30.794      -6.792
  H     -438.379      31.586      -3.062
  H     -437.429      31.707      -4.523
  H     -438.142      30.178      -4.069

 6  7  8  9  10  11  12  13  14  15  16  26  31  32  33  34  35 0
 6-311+G(2d,p)
 ****
 36  37 0
 6-311+G(2d,p)
 ****
 1  2  3  4  5  17  18  19  20  21  22  23  24  25 0
 3-21G
 ****
 27  28  29  30  38  39  40  41  42  43  44  45 0
 3-21G
 ****


