%nproc=1
%NoSave
%Mem=1900MB
#P OB98/GEN NMR

erre ene a

0 1
  C     -189.161     405.897     273.988
  O     -189.255     406.696     272.823
  H     -190.030     405.234     274.028
  H     -189.164     406.533     274.877
  H     -188.252     405.289     273.964
  P     -187.984     407.618     272.481
  C     -187.105     406.307     270.382
  O     -187.746     407.456     270.902
  C     -185.857     406.697     269.590
  O     -185.109     405.493     269.278
  C     -186.163     407.410     268.271
  O     -185.150     408.390     268.040
  C     -186.038     406.303     267.236
  O     -185.768     406.812     265.934
  C     -184.917     405.447     267.850
  N     -184.926     404.074     267.350
  C     -184.177     403.820     266.196
  O     -183.563     404.733     265.644
  N     -184.175     402.555     265.670
  C     -184.911     401.632     266.209
  N     -184.885     400.405     265.627
  C     -185.751     401.864     267.401
  C     -185.704     403.091     267.919
  O     -186.786     406.783     273.136
  O     -188.094     409.024     272.968
  H     -184.855     407.172     265.922
  H     -186.834     405.830     272.950
  H     -186.358     401.068     267.807
  H     -186.284     403.348     268.797
  H     -183.935     405.886     267.631
  H     -186.968     405.727     267.185
  H     -187.148     407.885     268.266
  H     -185.216     407.313     270.230
  H     -184.314     400.295     264.798
  H     -187.789     405.751     269.732
  H     -185.459     399.629     265.928
  H     -186.835     405.659     271.223
  P     -185.351     409.878     268.586
  C     -185.441     409.797     271.167
  O     -184.639     410.022     270.014
  O     -186.740     410.414     268.510
  O     -184.377     410.738     267.636
  H     -184.840     411.568     267.406
  H     -184.845     409.925     272.046
  H     -185.830     408.801     271.142
  H     -186.251     410.496     271.180

 6  7  8  9  10  11  12  13  14  15  16  26  30  31  32  33  35 0
 6-311+G(2d,p)
 ****
 37  38 0
 6-311+G(2d,p)
 ****
 1  2  3  4  5  17  18  19  20  21  22  23  24  25 0
 3-21G
 ****
 27  28  29  34  36  39  40  41  42  43  44  45  46 0
 3-21G
 ****


