%nproc=1
%NoSave
%Mem=1900MB
#P OB98/GEN NMR

erre ene a

0 1
  C      -37.616    -151.690     278.514
  O      -36.583    -151.967     277.592
  H      -38.569    -151.976     278.065
  H      -37.645    -150.623     278.746
  H      -37.474    -152.268     279.431
  P      -35.077    -151.581     277.981
  C      -35.119    -149.175     277.049
  O      -35.051    -149.993     278.212
  C      -33.901    -148.245     276.987
  O      -33.920    -147.578     275.698
  C      -33.925    -147.171     278.083
  O      -32.719    -147.127     278.844
  C      -34.342    -145.913     277.332
  O      -33.906    -144.706     277.923
  C      -33.811    -146.159     275.917
  N      -34.529    -145.424     274.879
  C      -33.830    -144.431     274.199
  O      -32.655    -144.133     274.395
  N      -34.542    -143.755     273.240
  C      -35.851    -143.961     272.914
  O      -36.432    -143.328     272.042
  C      -36.542    -145.004     273.685
  C      -35.861    -145.676     274.617
  O      -34.022    -152.095     277.061
  O      -34.898    -152.161     279.463
  H      -34.285    -144.674     278.827
  H      -34.349    -152.969     279.432
  H      -34.041    -143.045     272.730
  H      -37.587    -145.186     273.462
  H      -36.343    -146.454     275.205
  H      -32.758    -145.885     275.847
  H      -35.437    -145.878     277.298
  H      -34.686    -147.402     278.837
  H      -32.989    -148.850     277.029
  H      -36.041    -148.589     277.102
  H      -35.148    -149.806     276.155
  P      -32.497    -147.837     280.254
  C      -32.622    -145.662     281.729
  O      -33.165    -146.933     281.391
  O      -31.119    -148.343     280.520
  O      -33.479    -149.117     280.196
  H      -33.048    -149.816     280.724
  H      -33.208    -145.219     282.507
  H      -32.635    -145.028     280.867
  H      -31.614    -145.783     282.067

 6  7  8  9  10  11  12  13  14  15  16  26  31  32  33  34  35 0
 6-311+G(2d,p)
 ****
 36  37 0
 6-311+G(2d,p)
 ****
 1  2  3  4  5  17  18  19  20  21  22  23  24  25 0
 3-21G
 ****
 27  28  29  30  38  39  40  41  42  43  44  45 0
 3-21G
 ****


