%nproc=1
%NoSave
%Mem=1900MB
#P OB98/GEN NMR

erre ene a

0 1
  C       64.669      -1.595       2.858
  O       63.613      -0.775       2.405
  H       65.614      -1.082       2.668
  H       64.672      -2.546       2.321
  H       64.578      -1.773       3.933
  P       62.111      -1.323       2.509
  C       61.400      -0.700       4.911
  O       61.335      -0.358       3.531
  C       60.777       0.414       5.762
  O       61.474       1.646       5.453
  C       59.285       0.614       5.465
  O       58.476       0.576       6.638
  C       59.266       1.884       4.623
  O       58.055       2.609       4.687
  C       60.497       2.649       5.117
  N       61.041       3.589       4.138
  C       61.218       4.907       4.549
  O       60.966       5.338       5.671
  N       61.721       5.760       3.599
  C       62.040       5.435       2.315
  O       62.490       6.243       1.511
  C       61.803       4.035       1.933
  C       61.321       3.190       2.846
  O       61.975      -2.779       2.802
  O       61.461      -0.945       1.096
  H       58.233       3.503       4.326
  H       61.382      -1.749       0.548
  H       61.869       6.713       3.889
  H       62.033       3.747       0.917
  H       61.137       2.149       2.599
  H       60.263       3.212       6.021
  H       59.417       1.605       3.574
  H       58.893      -0.214       4.864
  H       60.954       0.190       6.819
  H       62.453      -0.835       5.175
  H       60.864      -1.640       5.082
  P       57.277      -0.443       6.892
  C       58.785      -2.480       7.592
  O       57.762      -1.554       7.934
  O       56.564      -0.929       5.675
  O       56.222       0.418       7.758
  H       55.333       0.088       7.514
  H       58.963      -3.136       8.418
  H       59.684      -1.948       7.358
  H       58.478      -3.053       6.742

 6  7  8  9  10  11  12  13  14  15  16  26  31  32  33  34  35 0
 6-311+G(2d,p)
 ****
 36  37 0
 6-311+G(2d,p)
 ****
 1  2  3  4  5  17  18  19  20  21  22  23  24  25 0
 3-21G
 ****
 27  28  29  30  38  39  40  41  42  43  44  45 0
 3-21G
 ****


