%nproc=1
%NoSave
%Mem=1900MB
#P OB98/GEN NMR

erre ene a

0 1
  C     -301.666     -50.826    -175.974
  O     -301.960     -50.825    -174.591
  H     -300.720     -50.299    -176.127
  H     -302.448     -50.307    -176.532
  H     -301.558     -51.848    -176.344
  P     -303.309     -51.541    -174.097
  C     -303.292     -49.635    -172.343
  O     -304.067     -50.404    -173.248
  C     -304.072     -48.401    -171.897
  O     -304.459     -47.591    -173.028
  C     -305.381     -48.696    -171.170
  O     -305.205     -49.173    -169.847
  C     -306.017     -47.321    -171.211
  O     -305.390     -46.467    -170.238
  C     -305.674     -46.876    -172.651
  N     -306.749     -47.161    -173.601
  C     -307.592     -46.092    -173.932
  O     -307.420     -44.979    -173.435
  N     -308.632     -46.312    -174.804
  C     -308.831     -47.502    -175.278
  N     -309.879     -47.665    -176.132
  C     -307.982     -48.661    -174.942
  C     -306.972     -48.421    -174.109
  O     -303.140     -52.854    -173.405
  O     -304.222     -51.624    -175.410
  H     -305.537     -45.547    -170.533
  H     -305.069     -52.070    -175.160
  H     -308.209     -49.639    -175.344
  H     -306.308     -49.225    -173.808
  H     -305.442     -45.806    -172.688
  H     -307.087     -47.332    -170.990
  H     -306.007     -49.387    -171.753
  H     -303.399     -47.790    -171.280
  H     -310.443     -46.854    -176.348
  H     -302.363     -49.351    -172.843
  H     -310.157     -48.571    -176.492
  H     -303.053     -50.229    -171.458
  P     -306.530     -49.597    -169.044
  C     -305.175     -49.178    -166.849
  O     -306.382     -48.984    -167.572
  O     -306.337     -51.169    -168.836
  O     -307.820     -49.260    -169.725
  H     -306.842     -51.673    -169.505
  H     -305.252     -48.704    -165.893
  H     -304.360     -48.750    -167.394
  H     -305.004     -50.226    -166.715

 6  7  8  9  10  11  12  13  14  15  16  26  30  31  32  33  35 0
 6-311+G(2d,p)
 ****
 37  38 0
 6-311+G(2d,p)
 ****
 1  2  3  4  5  17  18  19  20  21  22  23  24  25 0
 3-21G
 ****
 27  28  29  34  36  39  40  41  42  43  44  45  46 0
 3-21G
 ****


