%nproc=1
%NoSave
%Mem=1900MB
#P OB98/GEN NMR

erre ene a

0 1
  C      -82.903      31.340       3.582
  O      -82.351      32.641       3.798
  P      -82.736      33.828       2.791
  C      -84.803      35.178       3.535
  O      -83.394      35.028       3.637
  C      -85.323      36.164       4.593
  O      -85.097      35.641       5.936
  C      -84.624      37.529       4.518
  O      -85.533      38.580       4.892
  C      -83.567      37.427       5.600
  O      -83.124      38.715       6.028
  C      -84.317      36.619       6.656
  N      -82.605      36.611      11.487
  C      -83.557      37.347      10.871
  N      -83.976      37.279       9.588
  C      -83.311      36.316       8.923
  C      -82.320      35.480       9.420
  C      -81.963      35.657      10.767
  N      -80.973      34.927      11.383
  N      -81.868      34.621       8.439
  C      -82.536      34.968       7.356
  N      -83.442      35.963       7.607
  O      -83.500      33.423       1.574
  O      -81.305      34.436       2.393
  H      -83.916      39.264       6.175
  H      -81.297      34.631       1.437
  H      -84.045      38.096      11.491
  H      -82.394      34.543       6.372
  H      -85.016      37.243       7.226
  H      -82.698      36.873       5.220
  H      -84.195      37.768       3.540
  H      -86.408      36.275       4.472
  H      -85.288      34.207       3.662
  H      -80.703      35.203      12.318
  H      -80.389      34.321      10.823
  H      -85.058      35.511       2.522
  P      -85.685      39.790       3.836
  C      -87.354      39.037       1.969
  O      -87.158      39.651       3.222
  O      -84.562      39.866       2.853
  O      -85.775      41.061       4.805
  H      -86.425      40.981       5.523
  H      -88.428      38.927       1.793
  H      -86.895      38.044       1.942
  H      -86.930      39.662       1.175
  H      -82.547      30.672       4.338
  H      -82.605      30.981       2.619
  H      -83.971      31.394       3.627

 3  4  5  6  7  8  9  10  11  12  22  25  29  30  31  32 0
 6-311+G(2d,p)
 ****
 33  36  37 0
 6-311+G(2d,p)
 ****
 1  2  13  14  15  16  17  18  19  20  21  23  24  26 0
 3-21G
 ****
 27  28  34  35  38  39  40  41  42  43  44  45  46  47  48 0
 3-21G
 ****


