%nproc=1
%NoSave
%Mem=1900MB
#P OB98/GEN NMR

erre ene a

0 1
  C     -955.360     143.493    -693.538
  O     -956.633     142.896    -693.273
  P     -957.925     143.833    -693.214
  C     -957.313     144.498    -690.724
  O     -957.815     144.857    -691.996
  C     -957.627     145.614    -689.709
  O     -958.955     146.123    -689.940
  C     -957.542     145.164    -688.261
  O     -956.242     145.251    -687.739
  C     -958.531     146.106    -687.586
  O     -957.926     147.397    -687.388
  C     -959.657     146.197    -688.653
  N     -960.711     145.161    -688.642
  C     -961.815     145.305    -687.785
  O     -961.980     146.261    -687.036
  N     -962.744     144.312    -687.844
  C     -962.797     143.288    -688.750
  O     -963.714     142.458    -688.793
  C     -961.696     143.268    -689.726
  C     -960.719     144.167    -689.620
  O     -959.106     142.834    -692.759
  O     -958.249     144.521    -694.512
  H     -958.528     147.919    -686.823
  H     -959.757     142.746    -693.468
  H     -963.524     144.359    -687.198
  H     -961.718     142.502    -690.489
  H     -959.880     144.153    -690.328
  H     -960.164     147.168    -688.609
  H     -958.818     145.741    -686.596
  H     -957.931     144.148    -688.162
  H     -956.908     146.446    -689.887
  H     -956.233     144.331    -690.770
  H     -957.776     143.555    -690.392
  P     -955.406     143.901    -687.430
  C     -956.481     143.971    -685.112
  O     -956.214     143.179    -686.242
  O     -953.937     144.062    -687.228
  O     -955.758     142.967    -688.693
  H     -955.027     143.025    -689.373
  H     -957.155     143.420    -684.425
  H     -956.971     144.908    -685.393
  H     -955.545     144.183    -684.554
  H     -954.605     142.735    -693.544
  H     -955.138     144.212    -692.777
  H     -955.385     143.979    -694.491

 3  4  5  6  7  8  9  10  11  12  13  23  28  29  30  31  32 0
 6-311+G(2d,p)
 ****
 33  34 0
 6-311+G(2d,p)
 ****
 1  2  14  15  16  17  18  19  20  21  22  24  25  26  27 0
 3-21G
 ****
 35  36  37  38  39  40  41  42  43  44  45 0
 3-21G
 ****


