%nproc=1
%NoSave
%Mem=1900MB
#P OB98/GEN NMR

erre ene a

0 1
  C      591.765    -479.568    -505.266
  O      592.460    -478.410    -505.669
  H      592.383    -480.445    -505.480
  H      590.830    -479.655    -505.829
  H      591.550    -479.542    -504.196
  P      591.818    -476.996    -505.253
  C      589.964    -477.088    -507.072
  O      591.111    -476.414    -506.569
  C      589.472    -476.408    -508.343
  O      589.040    -475.056    -508.060
  C      590.516    -476.297    -509.449
  O      590.611    -477.501    -510.205
  C      589.926    -475.173    -510.289
  O      588.833    -475.678    -511.081
  C      589.394    -474.222    -509.203
  N      591.497    -469.755    -510.370
  C      590.555    -470.502    -511.055
  N      590.123    -469.983    -512.222
  N      590.081    -471.650    -510.640
  C      590.621    -472.038    -509.462
  C      591.560    -471.398    -508.687
  C      592.064    -470.126    -509.155
  O      592.873    -469.413    -508.574
  N      591.850    -472.106    -507.546
  C      591.108    -473.186    -507.644
  N      590.348    -473.208    -508.796
  O      593.094    -476.042    -505.066
  O      590.974    -477.018    -504.026
  H      589.112    -476.546    -511.427
  H      592.919    -475.425    -504.330
  H      591.838    -468.888    -510.742
  H      591.076    -473.989    -506.913
  H      588.482    -473.698    -509.520
  H      590.651    -474.734    -510.972
  H      590.476    -469.131    -512.629
  H      591.491    -475.985    -509.055
  H      589.404    -470.493    -512.734
  H      588.580    -476.959    -508.701
  H      589.174    -477.058    -506.315
  H      590.226    -478.132    -507.279
  P      591.719    -478.571    -509.755
  C      593.814    -477.054    -510.028
  O      593.071    -478.149    -510.533
  O      591.266    -479.908    -510.502
  O      591.856    -478.769    -508.276
  H      591.627    -480.690    -510.038
  H      594.676    -476.894    -510.642
  H      594.124    -477.265    -509.026
  H      593.203    -476.175    -510.035

 6  7  8  9  10  11  12  13  14  15  26  29  33  34 0
 6-311+G(2d,p)
 ****
 36  38  39  40  41 0
 6-311+G(2d,p)
 ****
 1  2  3  4  5  16  17  18  19  20  21  22  23  24  25 0
 3-21G
 ****
 27  28  30  31  32  35  37  42  43  44  45  46  47 0
 3-21G
 ****
 48  49 0
 3-21G
 ****


