%nproc=1
%NoSave
%Mem=1900MB
#P OB98/GEN NMR

erre ene a

0 1
  C     -103.380     261.852     220.115
  O     -103.883     263.161     219.935
  H     -102.561     261.888     220.837
  H     -102.996     261.466     219.167
  H     -104.162     261.190     220.499
  P     -105.213     263.305     219.044
  C     -106.902     262.494     220.885
  O     -106.406     263.554     220.086
  C     -108.419     262.602     221.043
  O     -108.896     261.431     221.753
  C     -108.869     263.837     221.826
  O     -110.102     264.300     221.269
  C     -109.122     263.295     223.223
  O     -110.019     264.114     223.965
  C     -109.637     261.882     222.906
  N     -109.485     260.966     224.035
  C     -110.408     261.096     225.076
  O     -111.285     261.958     225.024
  N     -110.292     260.279     226.171
  C     -109.300     259.446     226.252
  N     -109.228     258.682     227.374
  C     -108.278     259.306     225.197
  C     -108.434     260.081     224.124
  O     -105.443     261.799     218.554
  O     -105.110     264.305     217.942
  H     -110.919     264.010     223.590
  H     -105.329     261.141     219.259
  H     -107.463     258.607     225.314
  H     -107.735     260.038     223.298
  H     -110.699     261.913     222.628
  H     -108.179     263.238     223.781
  H     -108.130     264.642     221.810
  H     -108.875     262.579     220.047
  H     -109.934     258.828     228.083
  H     -106.431     262.511     221.873
  H     -108.471     258.042     227.569
  H     -106.635     261.551     220.398
  P     -110.142     265.702     220.498
  C     -109.146     265.213     218.162
  O     -110.324     265.438     218.929
  O     -109.069     266.671     220.860
  O     -111.582     266.290     220.912
  H     -111.477     267.246     221.080
  H     -109.412     265.052     217.138
  H     -108.635     264.351     218.538
  H     -108.505     266.067     218.234

 6  7  8  9  10  11  12  13  14  15  16  26  30  31  32  33  35 0
 6-311+G(2d,p)
 ****
 37  38 0
 6-311+G(2d,p)
 ****
 1  2  3  4  5  17  18  19  20  21  22  23  24  25 0
 3-21G
 ****
 27  28  29  34  36  39  40  41  42  43  44  45  46 0
 3-21G
 ****


