%nproc=1
%NoSave
%Mem=1900MB
#P OB98/GEN NMR

erre ene a

0 1
  C     -124.315     512.982    -180.450
  O     -123.578     512.158    -181.328
  H     -123.929     512.853    -179.435
  H     -125.372     512.710    -180.457
  H     -124.199     514.035    -180.735
  P     -124.044     512.038    -182.853
  C     -125.354     509.836    -182.570
  O     -125.432     511.231    -182.843
  C     -126.742     509.256    -182.296
  O     -127.562     509.440    -183.482
  C     -126.726     507.765    -181.947
  O     -127.723     507.523    -180.949
  C     -127.118     507.114    -183.259
  O     -127.675     505.828    -183.053
  C     -128.077     508.149    -183.863
  N     -128.160     508.001    -185.317
  C     -128.705     506.804    -185.794
  O     -129.100     505.943    -185.001
  N     -128.737     506.579    -187.145
  C     -128.212     507.443    -187.951
  N     -128.240     507.141    -189.279
  C     -127.600     508.709    -187.499
  C     -127.608     508.922    -186.180
  O     -123.027     511.520    -183.813
  O     -124.493     513.530    -183.226
  H     -126.968     505.210    -182.771
  H     -123.737     514.027    -183.597
  H     -127.171     509.395    -188.210
  H     -127.171     509.817    -185.752
  H     -129.080     508.044    -183.440
  H     -126.230     507.002    -183.894
  H     -125.753     507.417    -181.593
  H     -127.211     509.844    -181.492
  H     -128.646     506.251    -189.541
  H     -124.716     509.704    -181.689
  H     -127.822     507.715    -189.998
  H     -124.891     509.319    -183.419
  P     -127.464     507.922    -179.416
  C     -127.311     505.552    -178.459
  O     -126.601     506.760    -178.715
  O     -128.685     508.328    -178.661
  O     -126.425     509.142    -179.512
  H     -126.563     509.737    -178.753
  H     -126.656     504.845    -177.994
  H     -127.674     505.149    -179.381
  H     -128.136     505.754    -177.809

 6  7  8  9  10  11  12  13  14  15  16  26  30  31  32  33  35 0
 6-311+G(2d,p)
 ****
 37  38 0
 6-311+G(2d,p)
 ****
 1  2  3  4  5  17  18  19  20  21  22  23  24  25 0
 3-21G
 ****
 27  28  29  34  36  39  40  41  42  43  44  45  46 0
 3-21G
 ****


