%nproc=1
%NoSave
%Mem=1900MB
#P OB98/GEN NMR

erre ene a

0 1
  C      233.755     406.480     377.777
  O      235.169     406.383     377.552
  P      236.258     406.858     378.625
  C      237.769     404.768     378.678
  O      236.843     405.582     379.395
  C      238.681     403.980     379.624
  O      239.559     404.869     380.339
  C      237.952     403.187     380.699
  O      237.373     402.005     380.161
  C      239.078     402.941     381.700
  O      239.888     401.825     381.306
  C      239.877     404.261     381.605
  N      239.599     405.160     382.716
  C      240.227     404.858     383.933
  O      240.911     403.845     384.047
  N      240.026     405.705     385.002
  C      239.222     406.714     384.881
  N      239.075     407.520     385.968
  C      238.477     407.018     383.646
  C      238.715     406.207     382.615
  O      235.780     407.950     379.531
  O      237.501     407.372     377.756
  H      239.299     401.045     381.303
  H      237.959     408.085     378.239
  H      237.796     407.852     383.599
  H      238.218     406.363     381.664
  H      240.953     404.050     381.578
  H      238.708     402.730     382.709
  H      237.178     403.807     381.166
  H      239.304     403.314     379.011
  H      239.602     407.290     386.798
  H      238.382     405.419     378.045
  H      238.476     408.333     385.984
  H      237.210     404.084     378.032
  P      236.303     401.185     381.024
  C      234.547     402.287     379.503
  O      234.876     401.894     380.821
  O      236.684     400.916     382.441
  O      236.131     399.816     380.209
  H      235.928     399.095     380.838
  H      233.462     402.368     379.424
  H      234.910     401.559     378.771
  H      234.994     403.266     379.296
  H      233.231     406.103     376.924
  H      233.488     407.504     377.935
  H      233.491     405.905     378.640

 3  4  5  6  7  8  9  10  11  12  13  23  27  28  29  30  32 0
 6-311+G(2d,p)
 ****
 34  35 0
 6-311+G(2d,p)
 ****
 1  2  14  15  16  17  18  19  20  21  22  24  25  26 0
 3-21G
 ****
 31  33  36  37  38  39  40  41  42  43  44  45  46 0
 3-21G
 ****


