%nproc=1
%NoSave
%Mem=1900MB
#P OB98/GEN NMR

erre ene a

0 1
  C       27.824      49.874     137.870
  O       27.974      48.997     136.768
  P       27.047      49.221     135.482
  C       25.343      47.279     135.769
  O       25.581      48.675     135.837
  C       23.956      47.003     135.183
  O       22.957      47.760     135.931
  C       23.813      47.393     133.705
  O       22.911      46.458     133.097
  C       23.153      48.756     133.789
  O       22.514      49.144     132.583
  C       22.203      48.524     134.969
  N       21.697      49.768     135.545
  C       20.599      50.357     134.928
  O       20.037      49.896     133.935
  N       20.188      51.552     135.455
  C       20.806      52.244     136.455
  O       20.458      53.366     136.802
  C       21.962      51.573     137.069
  C       22.348      50.386     136.595
  O       27.608      48.149     134.435
  O       27.072      50.606     134.929
  H       21.960      49.921     132.781
  H       28.198      48.580     133.789
  H       19.386      51.987     135.027
  H       22.464      52.085     137.880
  H       23.209      49.878     137.017
  H       21.358      47.898     134.655
  H       23.909      49.513     134.028
  H       24.763      47.414     133.163
  H       23.725      45.939     135.321
  H       25.398      46.856     136.773
  H       26.120      46.803     135.161
  P       23.240      45.958     131.606
  C       21.391      47.408     130.462
  O       22.764      47.121     130.615
  O       22.129      44.817     131.423
  O       24.638      45.464     131.434
  H       21.259      45.086     131.760
  H       20.842      47.258     131.395
  H       20.970      46.761     129.689
  H       21.279      48.449     130.151
  H       28.509      49.595     138.643
  H       26.822      49.812     138.241
  H       28.028      50.877     137.558

 3  4  5  6  7  8  9  10  11  12  13  23  28  29  30  31  32 0
 6-311+G(2d,p)
 ****
 33  34 0
 6-311+G(2d,p)
 ****
 1  2  14  15  16  17  18  19  20  21  22  24  25  26 0
 3-21G
 ****
 27  35  36  37  38  39  40  41  42  43  44  45 0
 3-21G
 ****


