%nproc=1
%NoSave
%Mem=1900MB
#P OB98/GEN NMR

erre ene a

0 1
  C     -262.223       8.063     139.899
  O     -262.121       8.937     138.759
  P     -263.332       9.962     138.454
  C     -264.574       8.452     136.718
  O     -264.626       9.160     137.948
  C     -265.984       8.173     136.172
  O     -266.699       7.256     137.047
  C     -266.863       9.433     136.026
  O     -267.719       9.225     134.895
  C     -267.680       9.407     137.310
  O     -268.868      10.188     137.234
  C     -267.930       7.899     137.436
  N     -268.326       7.470     138.779
  C     -269.675       7.190     139.007
  O     -270.557       7.323     138.165
  N     -269.989       6.742     140.267
  C     -269.120       6.606     141.318
  O     -269.473       6.240     142.430
  C     -267.723       6.953     141.037
  C     -267.395       7.355     139.792
  O     -262.827      10.669     137.101
  O     -263.586      10.987     139.509
  H     -269.330      10.093     138.085
  H     -262.956      11.637     137.167
  H     -270.951       6.521     140.440
  H     -266.998       6.845     141.835
  H     -266.359       7.612     139.567
  H     -268.697       7.590     136.717
  H     -267.073       9.793     138.131
  H     -266.283      10.350     135.901
  H     -265.875       7.675     135.204
  H     -264.061       7.492     136.885
  H     -263.992       9.030     135.997
  P     -267.149       9.571     133.428
  C     -268.378      11.873     133.201
  O     -267.159      11.177     133.287
  O     -268.397       9.119     132.522
  O     -265.870       8.874     133.072
  H     -269.248       9.420     132.877
  H     -269.120      11.474     133.888
  H     -268.764      11.818     132.176
  H     -268.193      12.923     133.457
  H     -261.346       7.453     139.960
  H     -263.086       7.439     139.794
  H     -262.313       8.648     140.790

 3  4  5  6  7  8  9  10  11  12  13  23  28  29  30  31  32 0
 6-311+G(2d,p)
 ****
 33  34 0
 6-311+G(2d,p)
 ****
 1  2  14  15  16  17  18  19  20  21  22  24  25  26 0
 3-21G
 ****
 27  35  36  37  38  39  40  41  42  43  44  45 0
 3-21G
 ****


