%nproc=1
%NoSave
%Mem=1900MB
#P OB98/GEN NMR

erre ene a

0 1
  C     -346.981    1335.819     -70.954
  O     -347.328    1337.196     -71.086
  P     -346.907    1338.225     -69.947
  C     -346.602    1340.484     -71.170
  O     -347.452    1339.678     -70.331
  C     -347.429    1341.411     -72.064
  O     -348.202    1340.690     -73.024
  C     -348.450    1342.242     -71.267
  O     -347.805    1343.274     -70.549
  C     -349.381    1342.703     -72.378
  O     -348.853    1343.852     -73.052
  C     -349.375    1341.469     -73.335
  N     -350.587    1340.657     -73.238
  C     -351.491    1340.783     -74.306
  O     -351.262    1341.589     -75.225
  N     -352.636    1340.050     -74.286
  C     -352.860    1339.226     -73.301
  N     -354.022    1338.501     -73.335
  C     -351.951    1339.076     -72.143
  C     -350.853    1339.807     -72.171
  O     -345.450    1338.190     -69.546
  O     -347.846    1337.822     -68.710
  H     -348.479    1344.418     -72.345
  H     -347.388    1338.018     -67.887
  H     -352.176    1338.369     -71.354
  H     -350.111    1339.759     -71.390
  H     -349.283    1341.801     -74.365
  H     -350.378    1342.957     -71.983
  H     -348.993    1341.577     -70.558
  H     -346.740    1342.082     -72.592
  H     -354.649    1338.626     -74.128
  H     -345.989    1339.834     -71.796
  H     -354.264    1337.804     -72.629
  H     -345.895    1341.052     -70.546
  P     -348.471    1343.721     -69.161
  C     -346.164    1344.166     -68.064
  O     -347.425    1344.690     -68.404
  O     -348.425    1342.374     -68.281
  O     -349.864    1344.261     -69.263
  H     -349.212    1342.354     -67.693
  H     -345.466    1345.003     -67.872
  H     -345.742    1343.544     -68.873
  H     -346.253    1343.559     -67.152
  H     -347.340    1335.278     -71.804
  H     -347.425    1335.423     -70.065
  H     -345.917    1335.723     -70.894

 3  4  5  6  7  8  9  10  11  12  13  23  27  28  29  30  32 0
 6-311+G(2d,p)
 ****
 34  35 0
 6-311+G(2d,p)
 ****
 1  2  14  15  16  17  18  19  20  21  22  24  25  26 0
 3-21G
 ****
 31  33  36  37  38  39  40  41  42  43  44  45  46 0
 3-21G
 ****


