%nproc=1
%NoSave
%Mem=1900MB
#P OB98/GEN NMR

erre ene a

0 1
  C      859.435    -128.050     409.798
  O      858.169    -127.711     410.379
  P      856.865    -128.440     409.784
  C      856.208    -130.976     409.835
  O      856.811    -129.866     410.501
  C      856.234    -132.211     410.737
  O      857.593    -132.485     411.178
  C      855.421    -132.072     412.006
  O      854.025    -132.181     411.741
  C      855.994    -133.205     412.849
  O      855.420    -134.464     412.463
  C      857.490    -133.168     412.449
  N      858.336    -132.545     413.456
  C      859.443    -133.291     413.864
  O      859.710    -134.412     413.421
  N      860.248    -132.702     414.804
  C      860.036    -131.490     415.395
  O      860.803    -131.018     416.231
  C      858.826    -130.775     414.976
  C      858.034    -131.328     414.041
  O      857.342    -128.754     408.289
  O      855.633    -127.599     409.894
  H      858.294    -128.981     408.230
  H      854.515    -134.479     412.835
  H      861.070    -133.223     415.096
  H      858.604    -129.818     415.444
  H      857.134    -130.816     413.714
  H      857.857    -134.188     412.273
  H      855.805    -133.074     413.915
  H      855.629    -131.104     412.492
  H      855.884    -133.071     410.149
  H      856.745    -131.196     408.903
  H      855.176    -130.706     409.571
  P      853.169    -130.818     411.799
  C      853.041    -128.682     410.301
  O      853.613    -129.954     410.528
  O      853.853    -130.073     413.042
  O      851.692    -131.046     411.945
  H      854.823    -130.122     413.023
  H      853.691    -128.117     409.630
  H      852.918    -128.118     411.227
  H      852.060    -128.802     409.819
  H      860.211    -127.496     410.285
  H      859.425    -127.809     408.756
  H      859.614    -129.098     409.920

 3  4  5  6  7  8  9  10  11  12  13  24  28  29  30  31  32 0
 6-311+G(2d,p)
 ****
 33  34 0
 6-311+G(2d,p)
 ****
 1  2  14  15  16  17  18  19  20  21  22  23  25  26  27 0
 3-21G
 ****
 35  36  37  38  39  40  41  42  43  44  45 0
 3-21G
 ****


