%nproc=1
%NoSave
%Mem=1900MB
#P OB98/GEN NMR

erre ene a

0 1
  C     -343.567    -206.470    -503.191
  O     -344.264    -205.304    -502.802
  H     -344.036    -207.334    -502.709
  H     -342.521    -206.418    -502.879
  H     -343.626    -206.601    -504.276
  P     -343.702    -203.883    -503.284
  C     -342.796    -203.072    -501.001
  O     -342.480    -203.517    -502.311
  C     -341.521    -202.885    -500.165
  O     -340.941    -204.196    -499.896
  C     -340.436    -202.043    -500.865
  O     -339.692    -201.377    -499.841
  C     -339.601    -203.122    -501.522
  O     -338.360    -202.619    -501.956
  C     -339.592    -204.181    -500.417
  N     -339.181    -205.491    -500.899
  C     -338.628    -206.350    -499.949
  O     -338.491    -205.987    -498.782
  N     -338.210    -207.593    -500.353
  C     -338.276    -207.921    -501.605
  N     -337.828    -209.157    -501.942
  C     -338.800    -207.019    -502.654
  C     -339.241    -205.831    -502.230
  O     -344.718    -202.804    -503.443
  O     -342.974    -204.205    -504.672
  H     -337.756    -202.465    -501.195
  H     -343.523    -203.895    -505.414
  H     -338.819    -207.333    -503.687
  H     -339.642    -205.099    -502.925
  H     -338.927    -203.885    -499.597
  H     -340.105    -203.509    -502.414
  H     -340.851    -201.316    -501.571
  H     -341.794    -202.451    -499.199
  H     -337.465    -209.741    -501.194
  H     -343.434    -203.831    -500.540
  H     -337.815    -209.518    -502.885
  H     -343.345    -202.128    -501.046
  P     -339.804    -199.799    -499.566
  C     -338.576    -199.107    -501.729
  O     -339.776    -199.011    -500.961
  O     -338.829    -199.283    -498.560
  O     -341.304    -199.581    -499.049
  H     -341.323    -198.826    -498.424
  H     -338.684    -198.541    -502.631
  H     -338.389    -200.132    -501.971
  H     -337.757    -198.719    -501.160

 6  7  8  9  10  11  12  13  14  15  16  26  30  31  32  33  35 0
 6-311+G(2d,p)
 ****
 37  38 0
 6-311+G(2d,p)
 ****
 1  2  3  4  5  17  18  19  20  21  22  23  24  25 0
 3-21G
 ****
 27  28  29  34  36  39  40  41  42  43  44  45  46 0
 3-21G
 ****


