%nproc=1
%NoSave
%Mem=1900MB
#P OB98/GEN NMR

erre ene a

0 1
  C      -34.373    -360.907    -217.924
  O      -33.422    -361.578    -218.755
  P      -33.331    -363.177    -218.626
  C      -32.506    -363.615    -221.070
  O      -32.211    -363.639    -219.685
  C      -32.400    -362.189    -221.626
  O      -31.170    -361.566    -221.152
  C      -32.405    -362.106    -223.156
  O      -33.141    -360.923    -223.505
  C      -30.939    -361.929    -223.497
  O      -30.748    -361.347    -224.776
  C      -30.475    -361.070    -222.316
  N      -29.025    -361.099    -222.127
  C      -28.260    -360.398    -223.053
  O      -28.741    -359.843    -224.039
  N      -26.908    -360.401    -222.834
  C      -26.260    -361.084    -221.844
  O      -25.044    -361.052    -221.690
  C      -27.114    -361.898    -220.964
  C      -28.437    -361.868    -221.146
  O      -34.712    -363.626    -219.289
  O      -33.116    -363.638    -217.224
  H      -34.980    -363.074    -220.045
  H      -30.941    -362.015    -225.463
  H      -26.335    -359.875    -223.473
  H      -26.630    -362.501    -220.206
  H      -29.091    -362.473    -220.532
  H      -30.785    -360.028    -222.457
  H      -30.434    -362.906    -223.482
  H      -32.863    -362.977    -223.630
  H      -33.235    -361.604    -221.220
  H      -33.522    -363.985    -221.241
  H      -31.827    -364.297    -221.593
  P      -34.190    -361.007    -224.725
  C      -35.971    -359.368    -223.734
  O      -35.016    -359.635    -224.731
  O      -35.239    -362.056    -224.115
  O      -33.610    -361.457    -226.023
  H      -35.498    -361.848    -223.204
  H      -36.240    -358.307    -223.778
  H      -35.573    -359.580    -222.737
  H      -36.869    -359.964    -223.907
  H      -34.329    -359.854    -218.110
  H      -34.146    -361.098    -216.896
  H      -35.356    -361.267    -218.144

 3  4  5  6  7  8  9  10  11  12  13  24  28  29  30  31  32 0
 6-311+G(2d,p)
 ****
 33  34 0
 6-311+G(2d,p)
 ****
 1  2  14  15  16  17  18  19  20  21  22  23  25  26  27 0
 3-21G
 ****
 35  36  37  38  39  40  41  42  43  44  45 0
 3-21G
 ****


