%nproc=1
%NoSave
%Mem=1900MB
#P OB98/GEN NMR

erre ene a

0 1
  C      -14.142    1126.393    -136.168
  O      -13.317    1125.571    -136.964
  H      -15.151    1126.390    -136.592
  H      -13.770    1127.421    -136.171
  H      -14.190    1126.018    -135.138
  P      -11.822    1125.307    -136.439
  C      -12.089    1122.758    -136.005
  O      -11.906    1124.043    -135.439
  C      -11.115    1121.748    -135.389
  O      -11.551    1121.460    -134.026
  C      -11.034    1120.417    -136.144
  O       -9.681    1119.979    -136.124
  C      -11.888    1119.475    -135.322
  O      -11.530    1118.107    -135.488
  C      -11.680    1120.023    -133.906
  N      -12.800    1119.659    -133.018
  C      -12.516    1118.709    -132.034
  O      -11.400    1118.208    -131.942
  N      -13.543    1118.302    -131.204
  C      -14.744    1118.745    -131.405
  N      -15.711    1118.279    -130.580
  C      -15.092    1119.696    -132.479
  C      -14.073    1120.119    -133.235
  O      -11.544    1126.530    -135.458
  O      -10.789    1125.179    -137.508
  H      -10.553    1118.049    -135.517
  H      -10.602    1126.784    -135.463
  H      -16.115    1120.018    -132.624
  H      -14.231    1120.816    -134.057
  H      -10.754    1119.649    -133.472
  H      -12.951    1119.586    -135.623
  H      -11.379    1120.500    -137.177
  H      -10.133    1122.226    -135.314
  H      -15.447    1117.614    -129.870
  H      -11.905    1122.805    -137.083
  H      -16.700    1118.522    -130.667
  H      -13.126    1122.429    -135.842
  P       -9.057    1119.486    -137.522
  C       -8.724    1121.827    -138.597
  O       -9.402    1120.587    -138.636
  O       -9.959    1118.231    -137.911
  O       -7.605    1119.124    -137.423
  H       -9.447    1117.407    -137.809
  H       -9.065    1122.445    -139.401
  H       -7.672    1121.661    -138.696
  H       -8.922    1122.313    -137.665

 6  7  8  9  10  11  12  13  14  15  16  26  30  31  32  33  35 0
 6-311+G(2d,p)
 ****
 37  38 0
 6-311+G(2d,p)
 ****
 1  2  3  4  5  17  18  19  20  21  22  23  24  25 0
 3-21G
 ****
 27  28  29  34  36  39  40  41  42  43  44  45  46 0
 3-21G
 ****


