%nproc=1
%NoSave
%Mem=1900MB
#P OB98/GEN NMR

erre ene a

0 1
  C     -348.514     372.119     873.286
  O     -347.531     371.940     872.292
  H     -348.584     373.183     873.527
  H     -348.231     371.577     874.193
  H     -349.491     371.770     872.934
  P     -347.368     370.466     871.668
  C     -348.018     371.410     869.335
  O     -347.083     370.657     870.099
  C     -347.490     371.658     867.923
  O     -346.351     372.551     868.001
  C     -347.032     370.380     867.214
  O     -347.394     370.476     865.818
  C     -345.517     370.414     867.333
  O     -344.860     369.674     866.306
  C     -345.243     371.923     867.325
  N     -343.962     372.233     867.963
  C     -342.864     372.422     867.113
  O     -342.999     372.310     865.889
  N     -341.633     372.667     867.670
  C     -341.491     372.645     868.961
  N     -340.240     372.874     869.449
  C     -342.615     372.388     869.891
  C     -343.808     372.209     869.331
  O     -348.856     369.881     871.705
  O     -346.386     369.585     872.368
  H     -343.894     369.754     866.440
  H     -348.849     368.913     871.839
  H     -342.446     372.359     870.961
  H     -344.687     371.998     869.932
  H     -345.223     372.301     866.292
  H     -345.223     369.977     868.303
  H     -347.469     369.469     867.637
  H     -348.268     372.176     867.345
  H     -339.494     373.030     868.773
  H     -348.182     372.379     869.832
  H     -340.009     372.834     870.431
  H     -348.977     370.875     869.302
  P     -348.017     369.157     865.144
  C     -350.423     369.113     866.142
  O     -349.603     369.375     865.007
  O     -347.885     368.053     866.306
  O     -347.318     368.727     863.896
  H     -347.195     367.409     866.077
  H     -351.446     369.303     865.894
  H     -350.128     369.749     866.950
  H     -350.311     368.090     866.434

 6  7  8  9  10  11  12  13  14  15  16  26  30  31  32  33  35 0
 6-311+G(2d,p)
 ****
 37  38 0
 6-311+G(2d,p)
 ****
 1  2  3  4  5  17  18  19  20  21  22  23  24  25 0
 3-21G
 ****
 27  28  29  34  36  39  40  41  42  43  44  45  46 0
 3-21G
 ****


