%nproc=1
%NoSave
%Mem=1900MB
#P OB98/GEN NMR

erre ene a

0 1
  C       77.680     766.550     790.320
  O       76.631     766.518     789.377
  H       77.661     767.518     790.825
  H       78.645     766.438     789.810
  H       77.561     765.756     791.062
  P       76.323     765.149     788.602
  C       74.202     763.861     787.898
  O       74.746     764.900     788.707
  C       73.049     763.175     788.624
  O       73.554     762.443     789.776
  C       72.020     764.144     789.188
  O       71.172     764.648     788.151
  C       71.318     763.245     790.205
  O       70.335     762.412     789.580
  C       72.497     762.418     790.751
  N       72.952     762.901     792.057
  C       72.315     762.389     793.164
  O       71.402     761.558     793.106
  N       72.701     762.905     794.378
  C       73.541     763.961     794.554
  O       73.675     764.555     795.613
  C       74.249     764.428     793.348
  C       73.915     763.896     792.165
  O       77.184     763.986     788.978
  O       76.518     765.536     787.057
  H       77.387     765.212     786.749
  H       70.160     761.692     790.213
  H       72.205     762.571     795.186
  H       74.991     765.230     793.454
  H       74.399     764.243     791.250
  H       72.201     761.353     790.852
  H       70.814     763.856     790.966
  H       72.511     764.966     789.703
  H       72.591     762.440     787.932
  H       74.999     763.125     787.690
  H       73.871     764.284     786.940
  P       70.171     765.857     788.455
  C       69.113     767.835     787.181
  O       69.999     766.719     787.106
  O       70.511     766.662     789.683
  O       68.741     765.169     788.612
  H       68.323     765.468     789.432
  H       69.079     768.328     786.232
  H       69.463     768.519     787.926
  H       68.132     767.495     787.441

 6  7  8  9  10  11  12  13  14  15  16  27  31  32  33  34  35 0
 6-311+G(2d,p)
 ****
 36  37 0
 6-311+G(2d,p)
 ****
 1  2  3  4  5  17  18  19  20  21  22  23  24  25 0
 3-21G
 ****
 26  28  29  30  38  39  40  41  42  43  44  45 0
 3-21G
 ****


