%nproc=1
%NoSave
%Mem=1900MB
#P OB98/GEN NMR

erre ene a

0 1
  C       86.720     500.271     245.514
  O       85.624     499.594     244.921
  P       84.150     500.177     245.215
  C       83.307     498.180     246.654
  O       83.187     498.913     245.440
  C       81.949     497.638     247.108
  O       82.144     496.791     248.278
  C       80.935     498.731     247.502
  O       79.640     498.247     247.119
  C       81.087     498.769     249.020
  O       80.009     499.404     249.692
  C       81.266     497.291     249.312
  N       80.369     495.261     253.927
  C       79.622     495.297     252.793
  N       79.933     495.845     251.589
  C       81.164     496.398     251.629
  C       82.032     496.459     252.717
  C       81.596     495.851     253.905
  N       82.352     495.829     255.064
  N       83.188     497.126     252.374
  C       83.019     497.468     251.114
  N       81.832     497.036     250.617
  O       83.694     500.736     243.782
  O       84.083     501.231     246.275
  H       79.756     500.213     249.218
  H       83.194     501.564     243.868
  H       78.653     494.807     252.862
  H       83.726     498.041     250.527
  H       80.317     496.727     249.234
  H       81.994     499.331     249.279
  H       81.114     499.697     247.017
  H       81.539     497.017     246.317
  H       83.696     498.841     247.433
  H       81.875     495.556     255.903
  H       83.157     496.444     255.096
  H       84.031     497.368     246.521
  P       78.657     499.214     246.310
  C       77.962     500.008     248.656
  O       77.507     499.600     247.374
  O       77.893     498.161     245.376
  O       79.311     500.348     245.564
  H       77.535     497.419     245.892
  H       77.093     500.320     249.235
  H       78.659     500.838     248.571
  H       78.434     499.161     249.168
  H       87.632     499.783     245.239
  H       86.615     500.256     246.579
  H       86.741     501.285     245.172

 3  4  5  6  7  8  9  10  11  12  22  25  29  30  31  32 0
 6-311+G(2d,p)
 ****
 33  36  37 0
 6-311+G(2d,p)
 ****
 1  2  13  14  15  16  17  18  19  20  21  23  24  26 0
 3-21G
 ****
 27  28  34  35  38  39  40  41  42  43  44  45  46  47  48 0
 3-21G
 ****


