%nproc=1
%NoSave
%Mem=1900MB
#P OB98/GEN NMR

erre ene a

0 1
  C     -105.189     244.538     -12.324
  O     -104.083     245.187     -12.956
  P     -102.967     245.893     -12.051
  C     -100.744     245.241     -13.184
  O     -101.707     246.264     -12.972
  C     -101.017     244.490     -14.497
  O     -100.972     245.420     -15.612
  C      -99.996     243.375     -14.769
  O     -100.606     242.121     -15.075
  C      -99.109     243.965     -15.853
  O      -98.449     242.976     -16.625
  C     -100.066     244.899     -16.602
  N      -99.348     245.965     -17.310
  C      -98.966     245.694     -18.617
  O      -99.136     244.600     -19.156
  N      -98.321     246.706     -19.276
  C      -97.960     247.907     -18.737
  O      -97.342     248.764     -19.354
  C      -98.336     248.112     -17.329
  C      -99.002     247.146     -16.692
  O     -102.633     245.200     -10.772
  O     -103.610     247.338     -11.757
  H      -99.128     242.391     -17.029
  H     -103.393     247.580     -10.836
  H      -98.052     246.533     -20.231
  H      -98.046     249.041     -16.863
  H      -99.279     247.266     -15.653
  H     -100.649     244.350     -17.346
  H      -98.334     244.570     -15.371
  H      -99.390     243.164     -13.882
  H     -102.027     244.076     -14.430
  H     -100.781     244.532     -12.356
  H      -99.740     245.679     -13.167
  P     -100.948     240.991     -13.995
  C     -102.955     239.598     -14.862
  O     -101.551     239.727     -14.767
  O     -101.738     241.442     -12.813
  O      -99.499     240.488     -13.531
  H      -99.508     240.333     -12.569
  H     -103.197     238.552     -15.067
  H     -103.321     240.212     -15.688
  H     -103.445     239.900     -13.934
  H     -105.833     244.123     -13.071
  H     -105.733     245.250     -11.739
  H     -104.828     243.756     -11.689

 3  4  5  6  7  8  9  10  11  12  13  23  28  29  30  31  32 0
 6-311+G(2d,p)
 ****
 33  34 0
 6-311+G(2d,p)
 ****
 1  2  14  15  16  17  18  19  20  21  22  24  25  26  27 0
 3-21G
 ****
 35  36  37  38  39  40  41  42  43  44  45 0
 3-21G
 ****


