%nproc=1
%NoSave
%Mem=1900MB
#P OB98/GEN NMR

erre ene a

0 1
  C     -170.516     -92.614    -110.916
  O     -171.003     -92.713    -112.238
  H     -171.192     -91.974    -110.343
  H     -169.521     -92.161    -110.912
  H     -170.479     -93.598    -110.441
  P     -170.268     -93.705    -113.261
  C     -172.428     -94.256    -114.553
  O     -171.124     -93.692    -114.616
  C     -173.099     -94.172    -115.922
  O     -173.480     -92.810    -116.210
  C     -172.199     -94.604    -117.075
  O     -172.079     -96.012    -117.122
  C     -172.936     -93.978    -118.250
  O     -174.068     -94.773    -118.634
  C     -173.400     -92.631    -117.643
  N     -172.516     -91.517    -117.988
  C     -172.579     -91.071    -119.304
  O     -173.320     -91.567    -120.151
  N     -171.720     -90.056    -119.630
  C     -170.766     -89.524    -118.810
  O     -169.876     -88.776    -119.204
  C     -170.798     -89.981    -117.412
  C     -171.647     -90.953    -117.075
  O     -169.945     -95.061    -112.730
  O     -168.941     -92.904    -113.670
  H     -168.182     -93.260    -113.170
  H     -173.712     -95.590    -119.031
  H     -171.723     -89.756    -120.594
  H     -170.100     -89.536    -116.715
  H     -171.668     -91.327    -116.056
  H     -174.412     -92.384    -117.989
  H     -172.301     -93.877    -119.133
  H     -171.216     -94.132    -116.983
  H     -174.013     -94.781    -115.892
  H     -173.018     -93.689    -113.824
  H     -172.354     -95.296    -114.220
  P     -170.655     -96.715    -117.317
  C     -170.340     -98.068    -115.164
  O     -170.683     -98.117    -116.541
  O     -169.476     -95.856    -117.000
  O     -170.642     -97.156    -118.858
  H     -169.836     -96.806    -119.283
  H     -170.391     -99.053    -114.748
  H     -171.025     -97.427    -114.648
  H     -169.346     -97.687    -115.057

 6  7  8  9  10  11  12  13  14  15  16  27  31  32  33  34  35 0
 6-311+G(2d,p)
 ****
 36  37 0
 6-311+G(2d,p)
 ****
 1  2  3  4  5  17  18  19  20  21  22  23  24  25 0
 3-21G
 ****
 26  28  29  30  38  39  40  41  42  43  44  45 0
 3-21G
 ****


