%nproc=1
%NoSave
%Mem=1900MB
#P OB98/GEN NMR

erre ene a

0 1
  C      133.243      27.972      33.564
  O      132.861      26.810      32.849
  P      131.317      26.455      32.636
  C      131.661      24.712      34.485
  O      130.800      25.718      33.969
  C      131.158      24.181      35.826
  O      131.091      25.282      36.774
  C      129.767      23.534      35.779
  O      129.773      22.472      36.739
  C      128.856      24.655      36.260
  O      127.611      24.183      36.748
  C      129.752      25.292      37.318
  N      126.314      28.210      39.735
  C      126.395      26.869      39.563
  N      127.330      26.171      38.884
  C      128.252      26.996      38.354
  C      128.281      28.380      38.420
  C      127.264      28.998      39.171
  N      127.185      30.353      39.387
  N      129.355      28.870      37.697
  C      129.953      27.805      37.209
  N      129.359      26.646      37.633
  O      130.996      25.736      31.367
  O      130.578      27.876      32.698
  H      127.151      24.922      37.191
  H      130.300      28.143      31.799
  H      125.615      26.286      40.037
  H      130.811      27.812      36.550
  H      129.762      24.717      38.253
  H      128.657      25.345      35.434
  H      129.483      23.159      34.788
  H      131.900      23.469      36.211
  H      132.652      25.153      34.619
  H      126.490      30.675      40.046
  H      128.007      30.927      39.206
  H      131.745      23.893      33.762
  P      129.176      21.034      36.348
  C      127.179      21.105      37.951
  O      127.594      21.112      36.597
  O      129.868      19.867      36.970
  O      129.294      21.009      34.746
  H      129.221      20.084      34.435
  H      127.180      20.078      38.322
  H      126.161      21.509      38.011
  H      127.841      21.715      38.567
  H      134.311      28.035      33.599
  H      132.856      27.921      34.560
  H      132.851      28.838      33.073

 3  4  5  6  7  8  9  10  11  12  22  25  29  30  31  32 0
 6-311+G(2d,p)
 ****
 33  36  37 0
 6-311+G(2d,p)
 ****
 1  2  13  14  15  16  17  18  19  20  21  23  24  26 0
 3-21G
 ****
 27  28  34  35  38  39  40  41  42  43  44  45  46  47  48 0
 3-21G
 ****


