%nproc=1
%NoSave
%Mem=1900MB
#P OB98/GEN NMR

erre ene a

0 1
  C       71.468    -230.665      49.226
  O       72.357    -230.943      48.162
  H       72.039    -230.235      50.053
  H       70.985    -231.584      49.569
  H       70.714    -229.943      48.903
  P       71.720    -231.617      46.852
  C       70.398    -233.794      46.456
  O       71.230    -233.066      47.351
  C       70.762    -235.280      46.478
  O       72.105    -235.433      45.950
  C       70.740    -235.890      47.881
  O       70.227    -237.220      47.808
  C       72.208    -235.933      48.274
  O       72.483    -236.943      49.240
  C       72.885    -236.153      46.920
  N       77.585    -237.081      48.675
  C       76.446    -237.804      48.719
  N       75.235    -237.486      48.208
  C       75.285    -236.308      47.563
  C       76.371    -235.459      47.437
  C       77.570    -235.886      48.037
  N       78.730    -235.144      48.020
  N       76.018    -234.321      46.740
  C       74.742    -234.486      46.438
  N       74.253    -235.665      46.929
  O       72.586    -231.619      45.637
  O       70.342    -230.816      46.713
  H       73.416    -236.853      49.524
  H       69.899    -230.715      47.575
  H       76.509    -238.758      49.236
  H       74.132    -233.781      45.882
  H       72.916    -237.210      46.632
  H       72.502    -234.967      48.702
  H       70.150    -235.304      48.584
  H       70.091    -235.816      45.799
  H       70.508    -233.405      45.437
  H       79.548    -235.532      48.464
  H       78.743    -234.259      47.535
  H       69.359    -233.654      46.771
  P       68.794    -237.523      48.459
  C       67.747    -237.237      50.803
  O       68.938    -237.474      50.057
  O       68.066    -238.705      47.916
  O       67.985    -236.170      48.153
  H       67.056    -236.395      47.948
  H       67.977    -237.228      51.848
  H       67.039    -238.013      50.600
  H       67.332    -236.292      50.521

 6  7  8  9  10  11  12  13  14  15  25  28  32  33  34  35 0
 6-311+G(2d,p)
 ****
 36  39  40 0
 6-311+G(2d,p)
 ****
 1  2  3  4  5  16  17  18  19  20  21  22  23  24 0
 3-21G
 ****
 26  27  29  30  31  37  38  41  42  43  44  45  46  47 0
 3-21G
 ****
 48 0
 3-21G
 ****


