%nproc=1
%NoSave
%Mem=1900MB
#P OB98/GEN NMR

erre ene a

0 1
  C     -361.961     183.167    -434.223
  O     -362.114     182.044    -435.067
  H     -361.119     182.988    -433.546
  H     -362.867     183.323    -433.625
  H     -361.758     184.062    -434.820
  P     -363.375     182.069    -436.068
  C     -365.945     182.020    -435.607
  O     -364.634     181.852    -435.088
  C     -366.939     182.199    -434.460
  O     -366.563     183.328    -433.639
  C     -368.366     182.478    -434.905
  O     -369.054     181.309    -435.328
  C     -368.948     183.047    -433.625
  O     -369.204     181.976    -432.694
  C     -367.785     183.945    -433.140
  N     -367.893     185.330    -433.611
  C     -368.878     186.120    -433.009
  O     -369.611     185.651    -432.139
  N     -369.031     187.425    -433.425
  C     -368.259     187.894    -434.359
  N     -368.468     189.186    -434.745
  C     -367.199     187.102    -435.008
  C     -367.077     185.844    -434.595
  O     -363.279     180.665    -436.827
  O     -363.473     183.258    -436.967
  H     -369.366     182.391    -431.827
  H     -364.086     180.531    -437.382
  H     -366.591     187.540    -435.789
  H     -366.315     185.201    -435.023
  H     -367.720     183.949    -432.044
  H     -369.894     183.576    -433.779
  H     -368.406     183.253    -435.686
  H     -366.885     181.300    -433.821
  H     -369.240     189.684    -434.327
  H     -366.202     181.129    -436.199
  H     -368.042     189.583    -435.578
  H     -365.984     182.898    -436.262
  P     -370.347     181.495    -436.261
  C     -372.773     182.371    -435.923
  O     -371.550     181.985    -435.314
  O     -370.754     179.992    -436.618
  O     -370.126     182.329    -437.488
  H     -371.061     179.921    -437.547
  H     -373.469     182.669    -435.167
  H     -373.175     181.545    -436.472
  H     -372.597     183.190    -436.589

 6  7  8  9  10  11  12  13  14  15  16  26  30  31  32  33  35 0
 6-311+G(2d,p)
 ****
 37  38 0
 6-311+G(2d,p)
 ****
 1  2  3  4  5  17  18  19  20  21  22  23  24  25 0
 3-21G
 ****
 27  28  29  34  36  39  40  41  42  43  44  45  46 0
 3-21G
 ****


