%nproc=1
%NoSave
%Mem=1900MB
#P OB98/GEN NMR

erre ene a

0 1
  C     -419.305      40.272     189.380
  O     -419.014      38.883     189.346
  H     -418.720      40.731     190.180
  H     -420.368      40.443     189.579
  H     -419.025      40.734     188.431
  P     -419.938      37.942     188.429
  C     -418.725      35.862     189.370
  O     -419.976      36.519     189.181
  C     -418.828      34.795     190.467
  O     -419.128      35.408     191.733
  C     -419.950      33.789     190.239
  O     -419.731      32.917     189.148
  C     -420.165      33.213     191.632
  O     -419.290      32.131     191.938
  C     -419.824      34.431     192.532
  N     -421.011      34.992     193.164
  C     -421.237      34.607     194.483
  O     -420.507      33.825     195.095
  N     -422.364      35.116     195.072
  C     -423.290      35.921     194.465
  O     -424.301      36.317     195.035
  C     -423.010      36.276     193.064
  C     -421.902      35.797     192.484
  O     -419.545      37.855     186.984
  O     -421.413      38.514     188.659
  H     -419.272      32.048     192.917
  H     -422.032      38.200     187.958
  H     -422.534      34.861     196.030
  H     -423.725      36.905     192.548
  H     -421.675      36.043     191.448
  H     -419.132      34.130     193.330
  H     -421.184      32.853     191.763
  H     -420.861      34.345     189.993
  H     -417.858      34.289     190.547
  H     -417.998      36.620     189.675
  H     -418.397      35.413     188.428
  P     -420.873      31.996     188.518
  C     -419.395      31.613     186.412
  O     -420.194      31.020     187.433
  O     -422.163      32.669     188.163
  O     -421.175      30.985     189.739
  H     -422.129      30.767     189.715
  H     -419.012      30.848     185.769
  H     -418.580      32.143     186.859
  H     -419.992      32.293     185.841

 6  7  8  9  10  11  12  13  14  15  16  26  31  32  33  34  35 0
 6-311+G(2d,p)
 ****
 36  37 0
 6-311+G(2d,p)
 ****
 1  2  3  4  5  17  18  19  20  21  22  23  24  25 0
 3-21G
 ****
 27  28  29  30  38  39  40  41  42  43  44  45 0
 3-21G
 ****


