%nproc=1
%NoSave
%Mem=1900MB
#P OB98/GEN NMR

erre ene a

0 1
  C       -4.659       5.450      18.951
  O       -4.494       5.137      20.323
  P       -3.342       5.912      21.130
  C       -4.790       8.062      21.281
  O       -3.561       7.480      20.871
  C       -4.599       8.910      22.539
  O       -5.813       9.677      22.777
  C       -4.308       8.104      23.815
  O       -3.416       8.895      24.608
  C       -5.682       8.016      24.454
  O       -5.659       7.660      25.826
  C       -6.220       9.408      24.138
  N      -10.135       9.210      27.416
  C       -8.798       9.150      27.607
  N       -7.815       9.218      26.685
  C       -8.331       9.375      25.454
  C       -9.669       9.435      25.103
  C      -10.598       9.347      26.153
  N      -11.963       9.400      25.954
  N       -9.814       9.573      23.739
  C       -8.583       9.594      23.271
  N       -7.655       9.499      24.271
  O       -2.025       5.581      20.286
  O       -3.202       5.515      22.567
  H       -5.148       8.322      26.333
  H       -1.258       5.436      20.871
  H       -8.475       9.031      28.636
  H       -8.312       9.663      22.227
  H       -5.772      10.177      24.779
  H       -6.268       7.248      23.935
  H       -3.845       7.133      23.617
  H       -3.791       9.628      22.352
  H       -5.509       7.269      21.509
  H      -12.540       9.129      26.737
  H      -12.294       9.293      25.004
  H       -5.200       8.661      20.461
  P       -2.240       8.161      25.417
  C       -0.893       8.597      23.274
  O       -1.240       7.653      24.268
  O       -2.967       6.798      25.838
  O       -1.651       8.928      26.549
  H       -3.390       6.366      25.074
  H       -0.138       8.152      22.619
  H       -0.478       9.498      23.733
  H       -1.773       8.850      22.677
  H       -5.456       4.863      18.545
  H       -3.753       5.235      18.425
  H       -4.893       6.489      18.848

 3  4  5  6  7  8  9  10  11  12  22  25  29  30  31  32 0
 6-311+G(2d,p)
 ****
 33  36  37 0
 6-311+G(2d,p)
 ****
 1  2  13  14  15  16  17  18  19  20  21  23  24  26 0
 3-21G
 ****
 27  28  34  35  38  39  40  41  42  43  44  45  46  47  48 0
 3-21G
 ****


