%nproc=1
%NoSave
%Mem=1900MB
#P OB98/GEN NMR

erre ene a

0 1
  C        4.606     -46.341     191.078
  O        4.714     -45.244     190.198
  P        5.808     -44.098     190.427
  C        7.717     -45.142     189.047
  O        7.247     -44.811     190.350
  C        9.200     -44.779     188.910
  O        9.326     -43.322     188.907
  C       10.060     -45.326     190.066
  O       11.199     -46.080     189.650
  C       10.364     -44.077     190.878
  O       11.497     -44.199     191.716
  C       10.422     -43.004     189.786
  N       10.328     -41.650     190.326
  C       11.471     -40.859     190.256
  O       12.536     -41.219     189.765
  N       11.380     -39.624     190.835
  C       10.327     -39.156     191.562
  O       10.352     -38.078     192.138
  C        9.164     -40.052     191.636
  C        9.204     -41.229     191.007
  O        5.606     -43.255     191.640
  O        5.769     -43.280     189.050
  H       11.426     -45.044     192.197
  H        5.980     -43.803     188.258
  H       12.201     -39.040     190.792
  H        8.318     -39.712     192.215
  H        8.361     -41.910     191.043
  H       11.340     -43.079     189.201
  H        9.504     -43.886     191.531
  H        9.488     -46.029     190.682
  H        9.548     -45.158     187.945
  H        7.141     -44.577     188.311
  H        7.549     -46.206     188.852
  P       11.795     -47.348     190.424
  C       11.526     -49.483     188.966
  O       10.979     -48.643     189.962
  O       11.936     -47.182     191.900
  O       13.228     -47.560     189.741
  H       13.840     -47.962     190.386
  H       10.706     -49.968     188.429
  H       12.135     -50.255     189.442
  H       12.134     -48.920     188.253
  H        3.819     -46.986     190.749
  H        4.388     -45.987     192.064
  H        5.529     -46.882     191.089

 3  4  5  6  7  8  9  10  11  12  13  23  28  29  30  31  32 0
 6-311+G(2d,p)
 ****
 33  34 0
 6-311+G(2d,p)
 ****
 1  2  14  15  16  17  18  19  20  21  22  24  25  26  27 0
 3-21G
 ****
 35  36  37  38  39  40  41  42  43  44  45 0
 3-21G
 ****


