%nproc=1
%NoSave
%Mem=1900MB
#P OB98/GEN NMR

erre ene a

0 1
  C     -118.556    -150.004    -343.573
  O     -118.071    -150.047    -342.244
  H     -118.047    -150.776    -344.158
  H     -118.346    -149.028    -344.019
  H     -119.631    -150.197    -343.588
  P     -118.656    -148.942    -341.239
  C     -120.696    -150.470    -340.766
  O     -120.240    -149.187    -341.172
  C     -122.173    -150.416    -340.384
  O     -122.701    -151.746    -340.200
  C     -122.461    -149.649    -339.100
  O     -122.547    -148.255    -339.348
  C     -123.795    -150.256    -338.686
  O     -124.884    -149.671    -339.434
  C     -123.607    -151.731    -339.064
  N     -124.759    -155.378    -335.768
  C     -125.563    -154.695    -336.656
  N     -126.880    -155.007    -336.651
  N     -125.124    -153.774    -337.476
  C     -123.802    -153.521    -337.332
  C     -122.899    -154.127    -336.489
  C     -123.389    -155.182    -335.627
  O     -122.714    -155.881    -334.877
  N     -121.640    -153.609    -336.651
  C     -121.788    -152.670    -337.566
  N     -123.085    -152.576    -338.008
  O     -118.529    -147.577    -342.068
  O     -117.960    -148.839    -339.925
  H     -124.738    -149.825    -340.384
  H     -118.278    -146.860    -341.456
  H     -125.147    -156.096    -335.183
  H     -120.995    -152.043    -337.948
  H     -124.548    -152.191    -339.393
  H     -124.012    -150.070    -337.633
  H     -127.314    -155.476    -335.869
  H     -121.709    -149.868    -338.330
  H     -127.477    -154.454    -337.251
  H     -122.715    -149.970    -341.227
  H     -120.107    -150.798    -339.902
  H     -120.552    -151.179    -341.587
  P     -122.995    -147.297    -338.146
  C     -120.633    -146.930    -337.126
  O     -121.935    -147.472    -336.951
  O     -124.311    -148.016    -337.587
  O     -123.283    -145.888    -338.544
  H     -125.104    -147.518    -337.866
  H     -120.046    -147.124    -336.253
  H     -120.704    -145.874    -337.280
  H     -120.169    -147.384    -337.976

 6  7  8  9  10  11  12  13  14  15  26  29  33  34 0
 6-311+G(2d,p)
 ****
 36  38  39  40  41 0
 6-311+G(2d,p)
 ****
 1  2  3  4  5  16  17  18  19  20  21  22  23  24  25 0
 3-21G
 ****
 27  28  30  31  32  35  37  42  43  44  45  46  47 0
 3-21G
 ****
 48  49 0
 3-21G
 ****


