%nproc=1
%NoSave
%Mem=1900MB
#P OB98/GEN NMR

erre ene a

0 1
  C      402.709     -51.109     856.450
  O      401.855     -52.056     857.052
  H      403.115     -50.456     857.218
  H      402.153     -50.505     855.723
  H      403.552     -51.615     855.946
  P      401.141     -53.113     856.070
  C      398.749     -52.163     856.444
  O      399.812     -52.377     855.524
  C      397.400     -52.396     855.754
  O      397.098     -51.311     854.854
  C      397.317     -53.681     854.940
  O      397.022     -54.806     855.772
  C      396.180     -53.350     853.972
  O      394.897     -53.531     854.599
  C      396.445     -51.864     853.683
  N      396.537     -52.120     848.633
  C      395.501     -52.382     849.518
  N      394.350     -52.836     848.989
  N      395.613     -52.232     850.816
  C      396.835     -51.802     851.208
  C      397.928     -51.496     850.422
  C      397.797     -51.635     848.990
  O      398.638     -51.354     848.145
  N      398.993     -51.087     851.194
  C      398.552     -51.183     852.434
  N      397.265     -51.636     852.498
  O      400.564     -54.221     857.067
  O      402.017     -53.710     855.025
  H      394.209     -53.551     853.918
  H      400.552     -55.086     856.613
  H      396.386     -52.229     847.652
  H      399.131     -50.932     853.321
  H      395.510     -51.309     853.537
  H      396.204     -53.992     853.097
  H      394.322     -53.271     848.075
  H      398.254     -53.842     854.375
  H      393.601     -53.051     849.626
  H      396.627     -52.391     856.550
  H      398.795     -51.134     856.813
  H      398.858     -52.858     857.295
  P      397.107     -56.255     855.111
  C      394.550     -56.337     854.681
  O      395.847     -56.381     854.120
  O      396.734     -57.246     856.315
  O      398.442     -56.598     854.507
  H      397.016     -58.161     856.103
  H      393.822     -56.432     853.903
  H      394.412     -55.404     855.187
  H      394.435     -57.141     855.378

 6  7  8  9  10  11  12  13  14  15  26  29  33  34 0
 6-311+G(2d,p)
 ****
 36  38  39  40  41 0
 6-311+G(2d,p)
 ****
 1  2  3  4  5  16  17  18  19  20  21  22  23  24  25 0
 3-21G
 ****
 27  28  30  31  32  35  37  42  43  44  45  46  47 0
 3-21G
 ****
 48  49 0
 3-21G
 ****


