%nproc=1
%NoSave
%Mem=1900MB
#P OB98/GEN NMR

erre ene a

0 1
  C       25.020     -81.059     -10.021
  O       25.176     -79.659      -9.904
  H       25.972     -81.522     -10.289
  H       24.692     -81.459      -9.058
  H       24.265     -81.294     -10.776
  P       25.674     -78.889     -11.220
  C       24.497     -76.620     -10.820
  O       25.728     -77.326     -10.847
  C       23.851     -76.749      -9.443
  O       24.734     -76.135      -8.468
  C       22.473     -76.075      -9.330
  O       21.516     -76.978      -8.762
  C       22.698     -74.933      -8.358
  O       21.568     -74.676      -7.531
  C       23.902     -75.409      -7.555
  N       24.117     -72.305      -3.518
  C       23.556     -73.522      -3.679
  N       23.616     -74.339      -4.749
  C       24.379     -73.800      -5.715
  C       25.035     -72.581      -5.687
  C       24.865     -71.805      -4.528
  N       25.392     -70.540      -4.386
  N       25.717     -72.363      -6.869
  C       25.440     -73.413      -7.615
  N       24.623     -74.300      -6.966
  O       24.416     -78.999     -12.206
  O       26.908     -79.451     -11.840
  H       21.317     -75.520      -7.113
  H       24.687     -79.488     -13.007
  H       22.972     -73.886      -2.837
  H       25.762     -73.559      -8.639
  H       23.609     -76.095      -6.750
  H       22.928     -74.023      -8.923
  H       22.102     -75.713     -10.293
  H       23.779     -77.813      -9.187
  H       23.818     -77.036     -11.573
  H       25.125     -70.009      -3.574
  H       25.855     -70.120      -5.179
  H       24.683     -75.567     -11.057
  P       20.895     -78.075      -9.761
  C       21.395     -80.025      -8.121
  O       20.415     -79.332      -8.883
  O       22.178     -78.617     -10.549
  O       19.873     -77.524     -10.698
  H       22.050     -78.507     -11.510
  H       20.931     -80.831      -7.592
  H       21.844     -79.352      -7.421
  H       22.147     -80.413      -8.776

 6  7  8  9  10  11  12  13  14  15  25  28  32  33  34  35 0
 6-311+G(2d,p)
 ****
 36  39  40 0
 6-311+G(2d,p)
 ****
 1  2  3  4  5  16  17  18  19  20  21  22  23  24 0
 3-21G
 ****
 26  27  29  30  31  37  38  41  42  43  44  45  46  47  48 0
 3-21G
 ****


