%nproc=1
%NoSave
%Mem=1900MB
#P OB98/GEN NMR

erre ene a

0 1
  C      -32.679    -660.769      87.409
  O      -33.008    -661.698      88.453
  P      -32.874    -663.269      88.138
  C      -30.392    -663.534      88.878
  O      -31.337    -663.577      87.813
  C      -29.405    -664.699      88.769
  O      -28.755    -664.734      87.476
  C      -28.298    -664.660      89.810
  O      -28.720    -665.199      91.059
  C      -27.268    -665.579      89.171
  O      -27.629    -666.958      89.407
  C      -27.408    -665.244      87.681
  N      -23.080    -664.547      85.153
  C      -23.782    -665.704      85.403
  N      -23.268    -666.850      84.897
  N      -24.903    -665.745      86.086
  C      -25.310    -664.525      86.507
  C      -24.693    -663.305      86.324
  C      -23.464    -663.277      85.585
  O      -22.775    -662.286      85.340
  N      -25.408    -662.296      86.911
  C      -26.466    -662.896      87.432
  N      -26.443    -664.251      87.230
  O      -33.569    -663.404      86.697
  O      -33.523    -664.157      89.145
  H      -28.350    -667.172      88.783
  H      -33.943    -664.295      86.593
  H      -22.220    -664.569      84.623
  H      -27.267    -662.391      87.961
  H      -27.292    -666.125      87.030
  H      -26.263    -665.439      89.587
  H      -22.443    -666.893      84.325
  H      -27.885    -663.651      89.910
  H      -23.785    -667.712      85.042
  H      -29.979    -665.638      88.889
  H      -30.907    -663.569      89.840
  H      -29.870    -662.571      88.847
  P      -28.945    -664.177      92.274
  C      -31.501    -663.803      91.937
  O      -30.188    -663.265      91.849
  O      -27.687    -663.196      92.159
  O      -29.032    -664.806      93.615
  H      -27.434    -662.868      93.043
  H      -32.225    -662.995      91.767
  H      -31.672    -664.235      92.929
  H      -31.634    -664.570      91.163
  H      -32.816    -659.769      87.765
  H      -33.317    -660.938      86.567
  H      -31.659    -660.907      87.117

 3  4  5  6  7  8  9  10  11  12  23  26  30  31 0
 6-311+G(2d,p)
 ****
 33  35  36  37  38 0
 6-311+G(2d,p)
 ****
 1  2  13  14  15  16  17  18  19  20  21  22  24  25 0
 3-21G
 ****
 27  28  29  32  34  39  40  41  42  43  44  45  46  47  48  49 0
 3-21G
 ****


