%nproc=1
%NoSave
%Mem=1900MB
#P OB98/GEN NMR

erre ene a

0 1
  C      -68.187    -460.150     480.674
  O      -68.473    -459.346     479.549
  H      -67.843    -459.509     481.490
  H      -67.389    -460.855     480.423
  H      -69.076    -460.696     481.002
  P      -69.355    -460.001     478.379
  C      -71.366    -458.373     478.609
  O      -70.892    -459.705     478.746
  C      -72.429    -458.294     477.513
  O      -73.546    -459.156     477.888
  C      -72.992    -456.882     477.281
  O      -73.249    -456.712     475.881
  C      -74.324    -456.924     478.007
  O      -75.240    -455.956     477.511
  C      -74.742    -458.367     477.746
  N      -79.646    -457.888     478.706
  C      -78.906    -457.502     477.601
  N      -79.554    -456.831     476.629
  N      -77.629    -457.753     477.470
  C      -77.106    -458.449     478.510
  C      -77.729    -458.885     479.651
  C      -79.139    -458.586     479.799
  O      -79.845    -458.880     480.754
  N      -76.836    -459.500     480.495
  C      -75.672    -459.418     479.868
  N      -75.787    -458.789     478.661
  O      -69.195    -461.570     478.664
  O      -68.949    -459.642     476.993
  H      -76.133    -456.180     477.845
  H      -68.476    -461.933     478.116
  H      -80.621    -457.659     478.763
  H      -74.729    -459.779     480.253
  H      -75.131    -458.515     476.727
  H      -74.173    -456.747     479.078
  H      -80.540    -456.631     476.642
  H      -72.334    -456.079     477.636
  H      -79.030    -456.579     475.799
  H      -72.011    -458.703     476.586
  H      -70.528    -457.723     478.337
  H      -71.775    -458.036     479.563
  P      -72.261    -455.763     475.043
  C      -70.303    -457.415     474.579
  O      -70.756    -456.262     475.274
  O      -72.319    -454.380     475.847
  O      -72.662    -455.586     473.614
  H      -72.239    -453.633     475.226
  H      -69.285    -457.613     474.842
  H      -70.373    -457.246     473.525
  H      -70.910    -458.254     474.847

 6  7  8  9  10  11  12  13  14  15  26  29  33  34 0
 6-311+G(2d,p)
 ****
 36  38  39  40  41 0
 6-311+G(2d,p)
 ****
 1  2  3  4  5  16  17  18  19  20  21  22  23  24  25 0
 3-21G
 ****
 27  28  30  31  32  35  37  42  43  44  45  46  47 0
 3-21G
 ****
 48  49 0
 3-21G
 ****


