%nproc=1
%NoSave
%Mem=1900MB
#P OB98/GEN NMR

erre ene a

0 1
  C     -104.780     424.687     392.214
  O     -105.826     423.999     391.563
  H     -104.332     425.393     391.505
  H     -104.009     423.995     392.543
  H     -105.170     425.252     393.071
  P     -106.535     422.767     392.313
  C     -108.818     423.904     392.548
  O     -107.669     423.443     393.231
  C     -109.942     424.284     393.493
  O     -110.344     423.121     394.268
  C     -109.557     425.396     394.494
  O     -110.603     426.369     394.548
  C     -109.459     424.663     395.834
  O     -109.655     425.533     396.938
  C     -110.517     423.559     395.628
  N     -110.355     422.446     396.564
  C     -110.420     422.774     397.938
  O     -110.582     423.956     398.296
  N     -110.274     421.777     398.858
  C     -110.014     420.571     398.462
  N     -109.863     419.625     399.437
  C     -109.884     420.190     397.047
  C     -110.073     421.174     396.165
  O     -105.595     421.853     393.036
  O     -107.388     422.033     391.171
  H     -110.594     425.823     396.937
  H     -107.589     421.112     391.447
  H     -109.654     419.171     396.779
  H     -109.992     420.985     395.097
  H     -111.527     423.964     395.751
  H     -108.457     424.206     395.917
  H     -108.619     425.891     394.243
  H     -110.827     424.573     392.909
  H     -109.970     419.925     400.402
  H     -109.157     423.114     391.856
  H     -109.675     418.661     399.242
  H     -108.536     424.797     391.955
  P     -110.620     427.443     393.356
  C     -112.994     427.087     392.369
  O     -111.593     426.896     392.194
  O     -109.152     427.296     392.715
  O     -110.888     428.845     393.807
  H     -108.580     428.021     393.035
  H     -113.517     426.679     391.529
  H     -113.204     428.133     392.446
  H     -113.313     426.592     393.263

 6  7  8  9  10  11  12  13  14  15  16  26  30  31  32  33  35 0
 6-311+G(2d,p)
 ****
 37  38 0
 6-311+G(2d,p)
 ****
 1  2  3  4  5  17  18  19  20  21  22  23  24  25 0
 3-21G
 ****
 27  28  29  34  36  39  40  41  42  43  44  45  46 0
 3-21G
 ****


