%nproc=1
%NoSave
%Mem=1900MB
#P OB98/GEN NMR

erre ene a

0 1
  C     -270.174     182.565    -476.168
  O     -269.028     181.743    -476.051
  P     -267.647     182.168    -476.760
  C     -267.064     180.637    -478.747
  O     -267.763     181.808    -478.319
  C     -267.979     179.415    -478.664
  O     -269.234     179.662    -479.340
  C     -267.413     178.170    -479.330
  O     -266.361     177.590    -478.564
  C     -268.660     177.303    -479.451
  O     -268.961     176.649    -478.206
  C     -269.742     178.371    -479.771
  N     -270.110     178.384    -481.180
  C     -271.346     177.818    -481.487
  O     -272.024     177.266    -480.618
  N     -271.785     177.878    -482.791
  C     -271.003     178.350    -483.713
  N     -271.508     178.439    -484.970
  C     -269.625     178.809    -483.442
  C     -269.254     178.823    -482.163
  O     -266.413     181.672    -476.085
  O     -267.691     183.770    -476.762
  H     -266.854     184.108    -476.402
  H     -268.118     176.277    -477.880
  H     -268.988     179.132    -484.252
  H     -268.270     179.169    -481.869
  H     -270.640     178.192    -479.163
  H     -268.560     176.528    -480.215
  H     -267.039     178.424    -480.328
  H     -268.192     179.217    -477.596
  H     -272.464     178.132    -485.117
  H     -266.194     180.496    -478.097
  H     -271.127     179.076    -485.671
  H     -266.710     180.782    -479.769
  P     -265.532     176.408    -479.266
  C     -265.787     174.121    -478.054
  O     -266.328     175.046    -478.988
  O     -264.227     176.278    -478.332
  O     -265.159     176.660    -480.681
  H     -263.450     176.062    -478.887
  H     -266.585     173.448    -477.732
  H     -265.381     174.637    -477.182
  H     -265.001     173.540    -478.532
  H     -270.988     182.121    -475.634
  H     -270.437     182.665    -477.200
  H     -269.963     183.531    -475.758

 3  4  5  6  7  8  9  10  11  12  13  24  27  28  29  30  32 0
 6-311+G(2d,p)
 ****
 34  35 0
 6-311+G(2d,p)
 ****
 1  2  14  15  16  17  18  19  20  21  22  23  25  26 0
 3-21G
 ****
 31  33  36  37  38  39  40  41  42  43  44  45  46 0
 3-21G
 ****


