%nproc=1
%NoSave
%Mem=1900MB
#P OB98/GEN NMR

erre ene a

0 1
  C      314.281     325.000     -76.812
  O      314.349     325.107     -78.219
  H      313.623     324.162     -76.553
  H      313.858     325.914     -76.391
  H      315.270     324.814     -76.381
  P      315.454     326.058     -78.872
  C      313.927     327.678     -80.192
  O      314.754     327.497     -79.049
  C      313.709     329.166     -80.456
  O      313.148     329.772     -79.254
  C      315.011     329.920     -80.802
  O      314.704     330.962     -81.733
  C      315.380     330.523     -79.453
  O      316.263     331.609     -79.581
  C      313.994     330.889     -78.912
  N      314.030     331.151     -77.480
  C      314.566     332.372     -77.077
  O      315.000     333.216     -77.854
  N      314.644     332.570     -75.723
  C      314.360     331.646     -74.760
  O      314.528     331.857     -73.563
  C      313.849     330.350     -75.248
  C      313.706     330.170     -76.560
  O      316.124     325.540     -80.108
  O      316.495     326.339     -77.688
  H      316.477     331.968     -78.700
  H      317.354     326.625     -78.051
  H      315.020     333.459     -75.412
  H      313.625     329.594     -74.509
  H      313.353     329.222     -76.954
  H      313.592     331.776     -79.431
  H      315.858     329.773     -78.820
  H      315.792     329.274     -81.202
  H      312.968     329.285     -81.256
  H      312.964     327.188     -79.993
  H      314.395     327.198     -81.061
  P      314.393     330.646     -83.288
  C      316.923     330.765     -83.727
  O      315.711     330.085     -84.021
  O      313.725     331.768     -84.008
  O      313.426     329.372     -83.236
  H      312.680     329.514     -83.851
  H      317.727     330.309     -84.266
  H      317.119     330.706     -82.677
  H      316.836     331.791     -84.017

 6  7  8  9  10  11  12  13  14  15  16  26  31  32  33  34  35 0
 6-311+G(2d,p)
 ****
 36  37 0
 6-311+G(2d,p)
 ****
 1  2  3  4  5  17  18  19  20  21  22  23  24  25 0
 3-21G
 ****
 27  28  29  30  38  39  40  41  42  43  44  45 0
 3-21G
 ****


