%nproc=1
%NoSave
%Mem=1900MB
#P OB98/GEN NMR

erre ene a

0 1
  C     -225.200      18.068      11.639
  O     -225.461      17.863      10.260
  P     -225.248      19.050       9.203
  C     -222.806      18.298       8.924
  O     -223.679      19.386       9.203
  C     -221.912      18.619       7.729
  O     -221.132      17.444       7.401
  C     -222.689      19.015       6.479
  O     -221.950      20.018       5.774
  C     -222.707      17.754       5.632
  O     -222.847      18.067       4.235
  C     -221.374      17.110       6.021
  N     -219.833      13.092       3.222
  C     -219.604      14.417       3.093
  N     -220.066      15.430       3.857
  C     -220.795      14.955       4.880
  C     -221.110      13.630       5.144
  C     -220.595      12.670       4.258
  N     -220.820      11.318       4.400
  N     -221.907      13.534       6.269
  C     -222.051      14.772       6.682
  N     -221.390      15.667       5.883
  O     -226.135      20.230       9.394
  O     -225.471      18.363       7.778
  H     -222.900      17.216       3.754
  H     -225.941      18.972       7.177
  H     -218.969      14.703       2.260
  H     -222.629      15.077       7.542
  H     -220.544      17.507       5.424
  H     -223.558      17.129       5.923
  H     -223.697      19.380       6.702
  H     -221.210      19.409       8.018
  H     -223.415      17.419       8.691
  H     -220.311      10.698       3.789
  H     -221.237      10.993       5.261
  H     -222.204      18.078       9.811
  P     -222.822      21.211       5.133
  C     -222.607      22.695       7.261
  O     -223.451      21.976       6.391
  O     -223.770      20.716       4.091
  O     -221.668      22.178       4.585
  H     -220.829      22.053       5.080
  H     -223.212      23.110       8.072
  H     -222.129      23.521       6.727
  H     -221.846      22.036       7.688
  H     -225.400      17.165      12.178
  H     -225.829      18.851      12.009
  H     -224.174      18.342      11.771

 3  4  5  6  7  8  9  10  11  12  22  25  29  30  31  32 0
 6-311+G(2d,p)
 ****
 33  36  37 0
 6-311+G(2d,p)
 ****
 1  2  13  14  15  16  17  18  19  20  21  23  24  26 0
 3-21G
 ****
 27  28  34  35  38  39  40  41  42  43  44  45  46  47  48 0
 3-21G
 ****


