%nproc=1
%NoSave
%Mem=1900MB
#P OB98/GEN NMR

erre ene a

0 1
  C     -513.626     114.664      94.276
  O     -513.802     114.002      93.021
  P     -514.586     114.735      91.841
  C     -517.010     114.262      92.604
  O     -516.009     115.248      92.391
  C     -518.401     114.893      92.445
  O     -518.768     115.021      91.053
  C     -519.505     114.057      93.065
  O     -519.531     113.964      94.481
  C     -520.750     114.599      92.381
  O     -521.226     115.785      93.016
  C     -520.209     114.922      90.971
  N     -520.616     113.935      89.970
  C     -521.911     113.446      90.085
  O     -522.680     113.762      90.994
  N     -522.291     112.528      89.133
  C     -521.499     112.051      88.121
  O     -521.884     111.216      87.315
  C     -520.131     112.600      88.064
  C     -519.763     113.499      88.973
  O     -514.629     114.017      90.535
  O     -513.767     116.120      91.688
  H     -520.475     116.418      93.056
  H     -513.688     116.314      90.732
  H     -523.226     112.164      89.191
  H     -519.478     112.235      87.278
  H     -518.755     113.915      88.954
  H     -520.573     115.906      90.635
  H     -521.573     113.875      92.399
  H     -519.382     113.016      92.705
  H     -518.377     115.899      92.878
  H     -516.902     113.834      93.604
  H     -516.870     113.439      91.899
  P     -518.942     112.712      95.285
  C     -521.097     111.708      96.327
  O     -520.067     111.582      95.368
  O     -518.173     113.009      96.532
  O     -517.926     112.091      94.203
  H     -517.168     111.705      94.680
  H     -521.754     110.847      96.249
  H     -521.675     112.617      96.140
  H     -520.677     111.742      97.339
  H     -513.082     114.027      94.942
  H     -514.583     114.887      94.699
  H     -513.081     115.573      94.127

 3  4  5  6  7  8  9  10  11  12  13  23  28  29  30  31  32 0
 6-311+G(2d,p)
 ****
 33  34 0
 6-311+G(2d,p)
 ****
 1  2  14  15  16  17  18  19  20  21  22  24  25  26  27 0
 3-21G
 ****
 35  36  37  38  39  40  41  42  43  44  45 0
 3-21G
 ****


