%nproc=1
%NoSave
%Mem=1900MB
#P OB98/GEN NMR

erre ene a

0 1
  C      161.302     117.354      85.047
  O      160.661     117.455      86.302
  H      160.666     116.774      84.374
  H      162.263     116.844      85.151
  H      161.454     118.350      84.622
  P      161.491     118.179      87.474
  C      161.234     115.884      88.690
  O      162.094     116.952      88.320
  C      161.961     114.550      88.536
  O      162.739     114.531      87.319
  C      162.954     114.238      89.654
  O      162.336     113.784      90.846
  C      163.762     113.140      88.983
  O      162.997     111.919      88.965
  C      163.922     113.722      87.562
  N      165.138     114.525      87.405
  C      165.647     114.645      86.106
  O      165.091     114.095      85.159
  N      166.807     115.362      85.916
  C      167.393     115.929      86.927
  N      168.536     116.623      86.674
  C      166.883     115.840      88.306
  C      165.768     115.133      88.472
  O      160.348     118.743      88.442
  O      162.491     119.196      87.037
  H      163.566     111.240      88.560
  H      160.753     119.083      89.278
  H      167.414     116.318      89.118
  H      165.333     115.023      89.460
  H      163.932     112.922      86.810
  H      164.699     112.919      89.495
  H      163.613     115.090      89.855
  H      161.200     113.764      88.450
  H      168.891     116.616      85.727
  H      160.353     115.910      88.038
  H      169.141     116.968      87.408
  H      160.913     116.004      89.729
  P      162.536     114.680      92.163
  C      162.913     112.425      93.413
  O      163.326     113.775      93.225
  O      161.059     114.763      92.773
  O      163.122     116.036      91.922
  H      160.911     115.626      93.208
  H      163.536     111.961      94.149
  H      162.997     111.894      92.488
  H      161.896     112.406      93.744

 6  7  8  9  10  11  12  13  14  15  16  26  30  31  32  33  35 0
 6-311+G(2d,p)
 ****
 37  38 0
 6-311+G(2d,p)
 ****
 1  2  3  4  5  17  18  19  20  21  22  23  24  25 0
 3-21G
 ****
 27  28  29  34  36  39  40  41  42  43  44  45  46 0
 3-21G
 ****


