%nproc=1
%NoSave
%Mem=1900MB
#P OB98/GEN NMR

erre ene a

0 1
  C     -312.637     235.965    -218.708
  O     -313.410     235.687    -217.558
  H     -312.475     235.050    -219.284
  H     -313.179     236.680    -219.332
  H     -311.677     236.402    -218.423
  P     -312.786     234.659    -216.496
  C     -311.813     236.350    -214.780
  O     -311.545     235.423    -215.825
  C     -310.622     236.413    -213.832
  O     -310.453     235.145    -213.161
  C     -309.290     236.700    -214.517
  O     -309.106     238.079    -214.779
  C     -308.321     236.208    -213.455
  O     -308.223     237.181    -212.399
  C     -309.029     234.942    -212.949
  N     -305.072     231.870    -213.986
  C     -305.161     233.019    -213.285
  N     -306.252     233.781    -213.061
  C     -307.334     233.244    -213.645
  C     -307.394     232.083    -214.396
  C     -306.193     231.374    -214.557
  N     -306.096     230.207    -215.283
  N     -308.678     231.872    -214.865
  C     -309.381     232.872    -214.376
  N     -308.612     233.734    -213.640
  O     -312.080     233.554    -217.414
  O     -313.753     234.063    -215.527
  H     -307.593     236.820    -211.745
  H     -311.953     232.730    -216.907
  H     -304.230     233.378    -212.849
  H     -310.444     233.015    -214.523
  H     -308.875     234.776    -211.877
  H     -307.313     236.045    -213.839
  H     -309.165     236.098    -215.424
  H     -310.839     237.170    -213.066
  H     -312.701     236.025    -214.228
  H     -305.163     229.881    -215.490
  H     -306.891     229.915    -215.832
  H     -312.006     237.337    -215.218
  P     -307.943     238.489    -215.806
  C     -309.547     238.304    -217.846
  O     -308.356     237.842    -217.215
  O     -306.708     237.592    -215.331
  O     -307.615     239.945    -215.831
  H     -305.860     238.011    -215.572
  H     -309.687     237.782    -218.770
  H     -309.465     239.353    -218.038
  H     -310.384     238.123    -217.204

 6  7  8  9  10  11  12  13  14  15  25  28  32  33  34  35 0
 6-311+G(2d,p)
 ****
 36  39  40 0
 6-311+G(2d,p)
 ****
 1  2  3  4  5  16  17  18  19  20  21  22  23  24 0
 3-21G
 ****
 26  27  29  30  31  37  38  41  42  43  44  45  46  47 0
 3-21G
 ****
 48 0
 3-21G
 ****


