%nproc=1
%NoSave
%Mem=1900MB
#P OB98/GEN NMR

erre ene a

0 1
  C      146.969     331.389     -12.899
  O      148.178     332.083     -12.659
  H      146.737     331.441     -13.970
  H      146.155     331.859     -12.341
  H      147.064     330.339     -12.612
  P      148.804     331.953     -11.190
  C      150.988     330.861     -12.068
  O      149.840     330.728     -11.242
  C      152.257     330.873     -11.212
  O      152.188     329.841     -10.200
  C      153.542     330.619     -11.996
  O      154.021     331.804     -12.617
  C      154.463     330.174     -10.867
  O      154.907     331.328     -10.118
  C      153.527     329.308     -10.017
  N      155.354     324.725      -8.853
  C      155.588     325.951      -8.255
  N      156.438     325.958      -7.204
  N      155.045     327.072      -8.655
  C      154.222     326.914      -9.724
  C      153.910     325.751     -10.395
  C      154.515     324.523      -9.935
  O      154.324     323.405     -10.412
  N      153.037     325.985     -11.421
  C      152.831     327.293     -11.384
  N      153.537     327.898     -10.378
  O      147.590     331.366     -10.320
  O      149.332     333.216     -10.602
  H      154.157     331.615      -9.572
  H      147.629     331.754      -9.423
  H      155.811     323.892      -8.505
  H      152.184     327.833     -12.057
  H      153.764     329.366      -8.947
  H      155.363     329.669     -11.234
  H      156.930     325.139      -6.879
  H      153.421     329.802     -12.710
  H      156.601     326.839      -6.736
  H      152.301     331.836     -10.691
  H      150.924     331.798     -12.628
  H      151.021     330.023     -12.775
  P      153.514     332.111     -14.110
  C      151.852     333.976     -13.400
  O      152.018     332.674     -13.952
  O      153.295     330.649     -14.730
  O      154.443     332.940     -14.933
  H      153.345     330.689     -15.701
  H      150.810     334.215     -13.356
  H      152.356     334.691     -14.016
  H      152.265     334.000     -12.413

 6  7  8  9  10  11  12  13  14  15  26  29  33  34 0
 6-311+G(2d,p)
 ****
 36  38  39  40  41 0
 6-311+G(2d,p)
 ****
 1  2  3  4  5  16  17  18  19  20  21  22  23  24  25 0
 3-21G
 ****
 27  28  30  31  32  35  37  42  43  44  45  46  47 0
 3-21G
 ****
 48  49 0
 3-21G
 ****


