%nproc=1
%NoSave
%Mem=1900MB
#P OB98/GEN NMR

erre ene a

0 1
  C       -9.675      67.535    -184.592
  O      -10.242      67.609    -183.300
  P      -10.415      66.302    -182.390
  C      -12.103      64.352    -182.388
  O      -11.415      65.318    -183.178
  C      -12.991      63.473    -183.275
  O      -12.134      62.593    -184.070
  C      -13.957      62.582    -182.462
  O      -15.329      62.686    -182.856
  C      -13.340      61.199    -182.604
  O      -14.242      60.139    -182.362
  C      -12.720      61.277    -184.007
  N      -11.741      60.218    -184.246
  C      -12.175      59.103    -184.962
  O      -13.314      58.962    -185.407
  N      -11.266      58.093    -185.110
  C      -10.033      58.034    -184.528
  O       -9.308      57.052    -184.620
  C       -9.645      59.224    -183.750
  C      -10.489      60.253    -183.663
  O      -10.798      66.558    -180.972
  O       -9.007      65.554    -182.561
  H      -14.977      60.218    -183.002
  H       -8.784      65.306    -183.476
  H      -11.567      57.279    -185.624
  H       -8.677      59.199    -183.268
  H      -10.231      61.142    -183.096
  H      -13.485      61.225    -184.783
  H      -12.538      61.112    -181.857
  H      -13.961      62.872    -181.405
  H      -13.537      64.132    -183.955
  H      -12.730      64.874    -181.660
  H      -11.379      63.748    -181.826
  P      -16.533      61.841    -182.223
  C      -16.947      59.295    -181.889
  O      -16.365      60.315    -182.674
  O      -17.894      62.416    -182.435
  O      -16.177      61.799    -180.660
  H      -16.998      61.734    -180.142
  H      -16.357      58.381    -182.009
  H      -17.964      59.102    -182.245
  H      -16.975      59.567    -180.830
  H       -9.651      68.512    -185.027
  H      -10.266      66.886    -185.204
  H       -8.679      67.151    -184.523

 3  4  5  6  7  8  9  10  11  12  13  23  28  29  30  31  32 0
 6-311+G(2d,p)
 ****
 33  34 0
 6-311+G(2d,p)
 ****
 1  2  14  15  16  17  18  19  20  21  22  24  25  26  27 0
 3-21G
 ****
 35  36  37  38  39  40  41  42  43  44  45 0
 3-21G
 ****


