%nproc=1
%NoSave
%Mem=1900MB
#P OB98/GEN NMR

erre ene a

0 1
  C     -177.923     246.261     235.273
  O     -178.937     245.447     234.699
  P     -180.144     244.983     235.651
  C     -181.912     246.413     234.400
  O     -181.205     246.181     235.615
  C     -183.408     246.264     234.617
  O     -183.820     247.054     235.744
  C     -184.271     246.744     233.450
  O     -184.354     245.768     232.422
  C     -185.615     246.934     234.137
  O     -186.291     245.670     234.240
  C     -185.202     247.439     235.528
  N     -185.431     251.254     238.858
  C     -185.290     249.896     239.074
  N     -185.168     249.500     240.363
  N     -185.274     249.006     238.117
  C     -185.370     249.549     236.877
  C     -185.513     250.872     236.535
  C     -185.581     251.844     237.608
  O     -185.766     253.050     237.481
  N     -185.555     251.033     235.176
  C     -185.402     249.815     234.695
  N     -185.311     248.878     235.692
  O     -179.510     245.096     237.119
  O     -180.680     243.616     235.383
  H     -186.487     245.373     233.333
  H     -179.973     244.488     237.727
  H     -185.421     251.897     239.631
  H     -185.350     249.575     233.641
  H     -185.797     246.959     236.320
  H     -186.278     247.607     233.588
  H     -185.043     250.150     241.124
  H     -183.909     247.705     233.069
  H     -185.029     248.511     240.534
  H     -183.624     245.212     234.843
  H     -181.583     245.681     233.651
  H     -181.671     247.418     234.039
  P     -184.248     246.311     230.909
  C     -182.091     244.938     230.428
  O     -182.685     246.220     230.543
  O     -184.507     247.879     231.064
  O     -185.190     245.665     229.955
  H     -184.867     248.248     230.230
  H     -182.778     244.209     229.993
  H     -181.772     244.599     231.419
  H     -181.211     245.015     229.783
  H     -177.189     246.493     234.530
  H     -177.459     245.736     236.082
  H     -178.358     247.167     235.639

 3  4  5  6  7  8  9  10  11  12  23  26  30  31  33  0
 6-311+G(2d,p)
 ****
 35  36  37  38 0
 6-311+G(2d,p)
 ****
 1  2  13  14  15  16  17  18  19  20  21  22  24  25  27  28  29 0
 3-21G
 ****
 32  34  39  40  41  42  43  44  45  46  47  48  49 0
 3-21G
 ****


