%nproc=1
%NoSave
%Mem=1900MB
#P OB98/GEN NMR

erre ene a

0 1
  C      200.014    -170.720      88.558
  O      199.841    -169.462      87.896
  P      198.742    -168.477      88.531
  C      199.589    -166.853      90.363
  O      199.491    -167.127      88.973
  C      200.736    -165.881      90.665
  O      202.020    -166.577      90.688
  C      200.864    -164.742      89.645
  O      201.306    -163.584      90.364
  C      201.985    -165.224      88.741
  O      202.555    -164.150      87.996
  C      202.900    -165.867      89.785
  N      207.792    -166.397      88.660
  C      207.106    -165.304      89.145
  N      207.838    -164.203      89.418
  N      205.815    -165.290      89.345
  C      205.215    -166.472      89.065
  C      205.789    -167.633      88.593
  C      207.215    -167.625      88.344
  O      207.873    -168.568      87.922
  N      204.857    -168.638      88.463
  C      203.716    -168.054      88.791
  N      203.887    -166.764      89.217
  O      198.375    -169.185      89.917
  O      197.539    -168.286      87.668
  H      203.435    -164.446      87.676
  H      197.536    -169.673      89.835
  H      208.788    -166.348      88.504
  H      202.747    -168.525      88.761
  H      203.460    -165.120      90.363
  H      201.608    -165.973      88.036
  H      208.847    -164.163      89.333
  H      199.943    -164.521      89.097
  H      207.368    -163.398      89.814
  H      200.576    -165.461      91.666
  H      199.757    -167.782      90.915
  H      198.633    -166.457      90.720
  P      200.909    -162.142      89.784
  C      198.561    -162.055      90.872
  O      199.857    -161.492      90.804
  O      200.012    -162.506      88.503
  O      202.070    -161.281      89.403
  H      200.211    -161.877      87.782
  H      198.143    -161.855      91.865
  H      198.577    -163.136      90.710
  H      197.919    -161.587      90.123
  H      200.765    -171.289      88.052
  H      199.090    -171.259      88.546
  H      200.316    -170.552      89.571

 3  4  5  6  7  8  9  10  11  12  23  26  30  31 0
 6-311+G(2d,p)
 ****
 33  35  36  37  38 0
 6-311+G(2d,p)
 ****
 1  2  13  14  15  16  17  18  19  20  21  22  24  25 0
 3-21G
 ****
 27  28  29  32  34  39  40  41  42  43  44  45  46  47  48  49 0
 3-21G
 ****


