%nproc=1
%NoSave
%Mem=1900MB
#P OB98/GEN NMR

erre ene a

0 1
  C      223.551     472.333      16.454
  O      222.451     472.869      17.162
  H      224.466     472.529      17.023
  H      223.640     472.809      15.472
  H      223.435     471.254      16.332
  P      221.022     472.774      16.433
  C      221.823     474.554      14.700
  O      220.881     474.197      15.700
  C      221.874     476.069      14.554
  O      222.868     476.455      13.581
  C      220.567     476.698      14.071
  O      219.603     476.819      15.103
  C      221.073     478.047      13.603
  O      221.324     478.892      14.742
  C      222.391     477.650      12.906
  N      222.232     477.400      11.472
  C      222.201     478.524      10.636
  O      222.296     479.659      11.108
  N      222.030     478.342       9.285
  C      221.911     477.138       8.804
  N      221.727     477.017       7.459
  C      221.956     475.929       9.643
  C      222.113     476.131      10.948
  O      219.974     472.900      17.638
  O      220.811     471.588      15.551
  H      220.500     478.920      15.263
  H      219.057     472.976      17.278
  H      221.841     474.950       9.199
  H      222.154     475.284      11.632
  H      223.157     478.428      13.041
  H      220.359     478.573      12.965
  H      220.159     476.156      13.210
  H      222.185     476.491      15.524
  H      221.642     477.866       6.918
  H      221.514     474.092      13.754
  H      221.450     476.148       7.027
  H      222.816     474.180      14.969
  P      218.207     476.042      14.909
  C      217.236     478.257      13.957
  O      217.055     477.155      14.841
  O      217.975     475.362      16.337
  O      218.192     475.036      13.797
  H      217.595     474.467      16.249
  H      216.390     478.909      14.022
  H      217.332     477.897      12.954
  H      218.121     478.792      14.231

 6  7  8  9  10  11  12  13  14  15  16  26  30  31  32  33  35 0
 6-311+G(2d,p)
 ****
 37  38 0
 6-311+G(2d,p)
 ****
 1  2  3  4  5  17  18  19  20  21  22  23  24  25 0
 3-21G
 ****
 27  28  29  34  36  39  40  41  42  43  44  45  46 0
 3-21G
 ****


