%nproc=1
%NoSave
%Mem=1900MB
#P OB98/GEN NMR

erre ene a

0 1
  C      222.381    -282.640     142.446
  O      222.735    -281.297     142.728
  P      224.254    -280.997     143.137
  C      223.849    -280.749     145.703
  O      224.449    -281.491     144.649
  C      224.104    -281.449     147.040
  O      223.622    -282.813     146.993
  C      225.581    -281.552     147.401
  O      226.071    -280.326     147.922
  C      225.566    -282.684     148.420
  O      225.220    -282.197     149.727
  C      224.457    -283.596     147.864
  N      224.989    -284.780     147.193
  C      225.545    -285.759     148.016
  O      225.615    -285.633     149.237
  N      226.054    -286.858     147.379
  C      226.113    -287.049     146.027
  O      226.634    -288.035     145.519
  C      225.538    -285.973     145.205
  C      225.015    -284.903     145.815
  O      224.309    -279.401     143.248
  O      225.271    -281.520     142.177
  H      225.040    -282.981     150.283
  H      225.181    -279.076     142.945
  H      226.437    -287.586     147.959
  H      225.562    -286.094     144.129
  H      224.597    -284.095     145.225
  H      223.807    -283.933     148.683
  H      226.547    -283.168     148.508
  H      226.162    -281.864     146.528
  H      223.550    -280.917     147.823
  H      222.773    -280.674     145.522
  H      224.270    -279.739     145.712
  P      227.521    -279.852     147.426
  C      228.528    -280.727     149.676
  O      228.561    -280.746     148.267
  O      227.603    -278.393     148.076
  O      227.671    -279.884     145.940
  H      227.122    -278.342     148.921
  H      227.504    -280.628     150.055
  H      229.128    -279.886     150.041
  H      228.957    -281.659     150.052
  H      221.343    -282.689     142.189
  H      222.564    -283.246     143.309
  H      222.968    -282.999     141.627

 3  4  5  6  7  8  9  10  11  12  13  23  28  29  30  31  32 0
 6-311+G(2d,p)
 ****
 33  34 0
 6-311+G(2d,p)
 ****
 1  2  14  15  16  17  18  19  20  21  22  24  25  26 0
 3-21G
 ****
 27  35  36  37  38  39  40  41  42  43  44  45 0
 3-21G
 ****


