%nproc=1
%NoSave
%Mem=1900MB
#P OB98/GEN NMR

erre ene a

0 1
  C      474.141     277.896    -571.802
  O      473.077     277.467    -570.959
  P      473.398     277.284    -569.398
  C      471.255     275.809    -569.234
  O      472.650     275.936    -568.956
  C      470.795     274.370    -568.992
  O      471.386     273.496    -569.973
  C      471.201     273.809    -567.639
  O      470.357     274.315    -566.622
  C      471.053     272.313    -567.881
  O      469.710     271.881    -567.645
  C      471.421     272.177    -569.379
  N      472.711     271.543    -569.583
  C      472.784     270.178    -569.267
  O      471.783     269.594    -568.830
  N      473.987     269.523    -569.415
  C      475.022     270.183    -569.841
  N      476.183     269.484    -569.978
  C      475.000     271.624    -570.170
  C      473.829     272.235    -570.010
  O      472.529     278.438    -568.709
  O      474.849     277.375    -569.045
  H      469.741     270.899    -567.641
  H      472.926     278.706    -567.861
  H      475.895     272.121    -570.517
  H      473.720     273.296    -570.220
  H      470.664     271.578    -569.909
  H      471.698     271.730    -567.217
  H      472.248     274.049    -567.415
  H      469.702     274.344    -569.117
  H      476.165     268.498    -569.733
  H      471.073     276.075    -570.276
  H      477.041     269.897    -570.318
  H      470.704     276.510    -568.598
  P      470.971     274.439    -565.150
  C      468.799     275.567    -564.369
  O      469.697     274.493    -564.178
  O      471.472     275.964    -565.120
  O      472.052     273.482    -564.771
  H      471.968     276.137    -564.295
  H      467.907     275.404    -563.761
  H      468.504     275.627    -565.422
  H      469.268     276.509    -564.055
  H      473.788     277.975    -572.809
  H      474.939     277.185    -571.759
  H      474.495     278.850    -571.472

 3  4  5  6  7  8  9  10  11  12  13  21  23  27  28  29  30  32 0
 6-311+G(2d,p)
 ****
 34  35 0
 6-311+G(2d,p)
 ****
 1  2  14  15  16  17  18  19  20  22  24  25  26 0
 3-21G
 ****
 31  33  36  37  38  39  40  41  42  43  44  45  46 0
 3-21G
 ****


