%nproc=1
%NoSave
%Mem=1900MB
#P OB98/GEN NMR

erre ene a

0 1
  C     -641.786     590.610     277.160
  O     -640.444     590.201     277.379
  H     -642.104     591.233     278.002
  H     -642.454     589.746     277.094
  H     -641.854     591.198     276.245
  P     -639.846     589.048     276.429
  C     -638.218     590.570     275.127
  O     -639.411     589.799     275.069
  C     -637.019     589.781     274.579
  O     -637.308     589.281     273.255
  C     -635.752     590.615     274.416
  O     -635.177     591.060     275.621
  C     -634.935     589.742     273.474
  O     -634.237     588.706     274.163
  C     -636.046     589.126     272.568
  N     -636.069     589.728     271.242
  C     -635.288     589.109     270.279
  O     -634.573     588.122     270.501
  N     -635.315     589.680     269.034
  C     -635.987     590.805     268.689
  O     -635.961     591.277     267.547
  C     -636.775     591.439     269.755
  C     -636.791     590.882     270.972
  O     -640.730     587.854     276.212
  O     -638.442     588.696     277.104
  H     -633.703     588.229     273.502
  H     -638.083     587.835     276.761
  H     -634.757     589.232     268.320
  H     -637.329     592.345     269.519
  H     -637.349     591.327     271.776
  H     -635.883     588.047     272.458
  H     -634.188     590.326     272.921
  H     -636.014     591.519     273.842
  H     -636.848     588.931     275.232
  H     -638.028     590.826     276.182
  H     -638.353     591.496     274.553
  P     -634.372     592.422     275.752
  C     -636.292     594.108     276.364
  O     -635.345     593.643     275.390
  O     -632.988     592.445     275.193
  O     -634.252     592.568     277.367
  H     -633.395     592.985     277.547
  H     -636.854     594.922     275.955
  H     -635.771     594.438     277.239
  H     -636.957     593.311     276.624

 6  7  8  9  10  11  12  13  14  15  16  26  31  32  33  34  35 0
 6-311+G(2d,p)
 ****
 36  37 0
 6-311+G(2d,p)
 ****
 1  2  3  4  5  17  18  19  20  21  22  23  24  25 0
 3-21G
 ****
 27  28  29  30  38  39  40  41  42  43  44  45 0
 3-21G
 ****


