%nproc=1
%NoSave
%Mem=1900MB
#P OB98/GEN NMR

erre ene a

0 1
  C      -25.697     -58.590     -80.922
  O      -24.472     -59.294     -80.942
  H      -25.517     -57.515     -81.008
  H      -26.305     -58.912     -81.773
  H      -26.241     -58.803     -79.998
  P      -23.415     -58.937     -79.789
  C      -23.394     -61.406     -78.967
  O      -22.646     -60.315     -79.484
  C      -22.682     -62.711     -79.307
  O      -22.655     -62.904     -80.740
  C      -21.226     -62.753     -78.855
  O      -21.089     -63.098     -77.489
  C      -20.681     -63.846     -79.759
  O      -21.089     -65.134     -79.265
  C      -21.391     -63.534     -81.085
  N      -16.895     -62.742     -83.403
  C      -17.353     -63.766     -82.651
  N      -18.572     -63.910     -82.088
  C      -19.356     -62.860     -82.376
  C      -19.029     -61.748     -83.133
  C      -17.726     -61.705     -83.660
  N      -17.244     -60.649     -84.400
  N      -20.092     -60.868     -83.187
  C      -21.047     -61.449     -82.490
  N      -20.639     -62.641     -81.952
  O      -24.323     -58.737     -78.487
  O      -22.518     -57.777     -80.062
  H      -20.649     -65.805     -79.821
  H      -23.812     -58.299     -77.780
  H      -16.649     -64.574     -82.475
  H      -22.040     -61.047     -82.338
  H      -21.615     -64.436     -81.666
  H      -19.589     -63.850     -79.804
  H      -20.708     -61.813     -79.082
  H      -23.252     -63.539     -78.871
  H      -24.391     -61.402     -79.419
  H      -16.257     -60.643     -84.604
  H      -17.802     -59.812     -84.471
  H      -23.490     -61.301     -77.881
  P      -20.236     -62.107     -76.555
  C      -22.116     -62.054     -74.764
  O      -20.753     -62.341     -75.054
  O      -20.822     -60.669     -76.929
  O      -18.757     -62.185     -76.752
  H      -20.134     -59.981     -76.857
  H      -22.311     -62.257     -73.732
  H      -22.747     -62.666     -75.374
  H      -22.315     -61.023     -74.968

 6  7  8  9  10  11  12  13  14  15  25  28  32  33  34  35 0
 6-311+G(2d,p)
 ****
 36  39  40 0
 6-311+G(2d,p)
 ****
 1  2  3  4  5  16  17  18  19  20  21  22  23  24 0
 3-21G
 ****
 26  27  29  30  31  37  38  41  42  43  44  45  46  47 0
 3-21G
 ****
 48 0
 3-21G
 ****


