%nproc=1
%NoSave
%Mem=1900MB
#P OB98/GEN NMR

erre ene a

0 1
  C      -97.540     421.545    -312.305
  O      -96.160     421.709    -312.653
  P      -94.971     421.345    -311.637
  C      -94.187     419.328    -313.025
  O      -94.659     419.775    -311.760
  C      -94.262     417.793    -313.156
  O      -95.653     417.367    -313.273
  C      -93.543     417.219    -314.373
  O      -92.156     417.139    -314.130
  C      -94.248     415.864    -314.513
  O      -93.701     414.906    -313.599
  C      -95.697     416.215    -314.139
  N      -99.027     414.108    -317.392
  C      -98.366     413.606    -316.328
  N      -97.485     414.237    -315.509
  C      -97.338     415.525    -315.878
  C      -97.939     416.168    -316.941
  C      -98.822     415.408    -317.729
  N      -99.480     415.920    -318.821
  N      -97.512     417.490    -317.008
  C      -96.694     417.625    -315.993
  N      -96.551     416.464    -315.277
  O      -95.195     421.816    -310.234
  O      -93.672     422.036    -312.270
  H      -94.403     414.266    -313.403
  H      -93.036     422.247    -311.560
  H      -98.572     412.566    -316.100
  H      -96.172     418.547    -315.741
  H      -96.160     415.402    -313.554
  H      -94.155     415.446    -315.518
  H      -93.757     417.833    -315.255
  H      -93.875     417.354    -312.233
  H      -93.136     419.636    -313.138
  H     -100.069     415.308    -319.357
  H      -99.296     416.876    -319.114
  H      -94.782     419.794    -313.811
  P      -91.165     418.238    -314.765
  C      -90.604     419.063    -312.398
  O      -91.037     419.428    -313.683
  O      -91.502     418.687    -316.153
  O      -89.734     417.556    -314.703
  H      -89.185     417.891    -315.439
  H      -91.429     418.632    -311.833
  H      -90.230     419.944    -311.881
  H      -89.795     418.317    -312.454
  H      -98.154     421.847    -313.128
  H      -97.766     422.148    -311.451
  H      -97.731     420.517    -312.077

 3  4  5  6  7  8  9  10  11  12  22  25  29  30  31  32 0
 6-311+G(2d,p)
 ****
 33  36  37 0
 6-311+G(2d,p)
 ****
 1  2  13  14  15  16  17  18  19  20  21  23  24  26 0
 3-21G
 ****
 27  28  34  35  38  39  40  41  42  43  44  45  46  47  48 0
 3-21G
 ****


