%nproc=1
%NoSave
%Mem=1900MB
#P OB98/GEN NMR

erre ene a

0 1
  C      -50.647      15.203       2.622
  O      -49.686      16.059       2.040
  H      -50.216      14.758       3.523
  H      -50.918      14.399       1.932
  H      -51.537      15.769       2.906
  P      -50.034      16.748       0.633
  C      -48.416      15.211      -0.683
  O      -48.709      16.531      -0.252
  C      -47.037      15.163      -1.336
  O      -46.987      16.006      -2.505
  C      -45.893      15.655      -0.455
  O      -45.531      14.738       0.564
  C      -44.805      15.819      -1.503
  O      -44.283      14.527      -1.862
  C      -45.607      16.436      -2.674
  N      -45.527      17.895      -2.714
  C      -44.498      18.446      -3.487
  O      -43.713      17.719      -4.093
  N      -44.358      19.813      -3.526
  C      -45.162      20.562      -2.839
  N      -44.951      21.907      -2.875
  C      -46.270      20.025      -2.026
  C      -46.391      18.699      -2.003
  O      -50.541      18.153       0.692
  O      -51.056      15.733      -0.065
  H      -45.035      13.908      -1.871
  H      -51.312      16.121      -0.937
  H      -46.906      20.693      -1.465
  H      -47.170      18.229      -1.414
  H      -45.262      16.037      -3.635
  H      -43.962      16.426      -1.160
  H      -46.121      16.638      -0.031
  H      -46.868      14.133      -1.676
  H      -44.157      22.235      -3.408
  H      -49.194      14.901      -1.386
  H      -45.341      22.520      -2.168
  H      -48.417      14.527       0.171
  P      -45.123      15.333       2.000
  C      -42.576      14.855       1.726
  O      -43.772      14.587       2.440
  O      -46.231      14.712       2.970
  O      -45.053      16.825       2.087
  H      -46.980      15.329       3.089
  H      -41.775      14.281       2.143
  H      -42.343      15.897       1.798
  H      -42.707      14.589       0.698

 6  7  8  9  10  11  12  13  14  15  16  26  30  31  32  33  35 0
 6-311+G(2d,p)
 ****
 37  38 0
 6-311+G(2d,p)
 ****
 1  2  3  4  5  17  18  19  20  21  22  23  24  25 0
 3-21G
 ****
 27  28  29  34  36  39  40  41  42  43  44  45  46 0
 3-21G
 ****


