%nproc=1
%NoSave
%Mem=1900MB
#P OB98/GEN NMR

erre ene a

0 1
  C       23.020     340.617    -346.493
  O       22.058     339.575    -346.333
  P       22.562     338.056    -346.225
  C       22.261     337.539    -348.724
  O       23.185     337.616    -347.640
  C       22.961     337.170    -350.050
  O       23.439     335.796    -350.022
  C       22.060     337.309    -351.285
  O       22.895     337.754    -352.369
  C       21.602     335.877    -351.527
  O       21.103     335.676    -352.838
  C       22.886     335.121    -351.171
  N       22.645     333.710    -350.908
  C       23.049     332.798    -351.879
  O       23.494     333.210    -352.960
  N       22.921     331.460    -351.622
  C       22.301     331.066    -350.551
  N       22.202     329.731    -350.321
  C       21.690     332.006    -349.585
  C       21.924     333.298    -349.809
  O       21.587     337.094    -345.640
  O       23.876     338.183    -345.296
  H       20.418     336.353    -353.021
  H       23.941     337.383    -344.736
  H       21.114     331.640    -348.750
  H       21.533     334.060    -349.154
  H       23.625     335.204    -351.978
  H       20.799     335.627    -350.820
  H       21.235     338.025    -351.157
  H       23.832     337.818    -350.166
  H       22.598     329.096    -351.006
  H       21.765     338.500    -348.840
  H       21.782     329.349    -349.486
  H       21.478     336.816    -348.481
  P       22.829     339.302    -352.805
  C       20.698     339.594    -354.263
  O       21.289     339.706    -352.982
  O       23.335     339.232    -354.322
  O       23.686     340.245    -352.020
  H       23.715     340.098    -354.572
  H       19.607     339.631    -354.154
  H       20.970     338.656    -354.749
  H       21.018     340.433    -354.898
  H       22.518     341.560    -346.548
  H       23.575     340.455    -347.394
  H       23.689     340.617    -345.658

 3  4  5  6  7  8  9  10  11  12  13  23  27  28  29  30  32 0
 6-311+G(2d,p)
 ****
 34  35 0
 6-311+G(2d,p)
 ****
 1  2  14  15  16  17  18  19  20  21  22  24  25  26 0
 3-21G
 ****
 31  33  36  37  38  39  40  41  42  43  44  45  46 0
 3-21G
 ****


