%nproc=1
%NoSave
%Mem=1900MB
#P OB98/GEN NMR

erre ene a

0 1
  C      -67.079      -1.617      23.702
  O      -67.700      -1.863      24.948
  H      -66.001      -1.525      23.860
  H      -67.448      -0.684      23.267
  H      -67.261      -2.445      23.013
  P      -69.292      -2.032      24.980
  C      -68.923      -4.121      26.451
  O      -69.564      -3.579      25.304
  C      -68.274      -5.457      26.104
  O      -67.151      -5.257      25.226
  C      -67.748      -6.223      27.316
  O      -68.804      -6.912      27.964
  C      -66.750      -7.150      26.643
  O      -67.451      -8.229      25.996
  C      -66.122      -6.218      25.592
  N      -61.184      -6.526      26.690
  C      -62.070      -7.513      26.303
  N      -61.576      -8.768      26.243
  N      -63.328      -7.292      26.023
  C      -63.694      -6.002      26.196
  C      -62.913      -4.940      26.590
  C      -61.510      -5.186      26.844
  O      -60.687      -4.337      27.172
  N      -63.652      -3.791      26.717
  C      -64.870      -4.151      26.362
  N      -64.952      -5.487      26.051
  O      -70.038      -1.527      23.782
  O      -69.737      -1.289      26.323
  H      -66.823      -8.631      25.367
  H      -69.967      -0.358      26.152
  H      -60.231      -6.763      26.911
  H      -65.724      -3.487      26.311
  H      -65.832      -6.753      24.681
  H      -66.039      -7.594      27.338
  H      -60.719      -9.029      26.715
  H      -67.203      -5.568      28.005
  H      -62.221      -9.512      26.011
  H      -69.011      -6.055      25.553
  H      -69.687      -4.255      27.224
  H      -68.162      -3.429      26.825
  P      -69.251      -6.526      29.458
  C      -71.618      -5.820      28.697
  O      -70.386      -5.409      29.274
  O      -68.134      -6.137      30.365
  O      -70.086      -7.788      29.965
  H      -69.530      -8.484      30.394
  H      -72.279      -4.981      28.633
  H      -72.062      -6.579      29.307
  H      -71.440      -6.209      27.716

 6  7  8  9  10  11  12  13  14  15  26  29  33  34 0
 6-311+G(2d,p)
 ****
 36  38  39  40  41 0
 6-311+G(2d,p)
 ****
 1  2  3  4  5  16  17  18  19  20  21  22  23  24  25 0
 3-21G
 ****
 27  28  30  31  32  35  37  42  43  44  45  46  47 0
 3-21G
 ****
 48  49 0
 3-21G
 ****


