%nproc=1
%NoSave
%Mem=1900MB
#P OB98/GEN NMR

erre ene a

0 1
  C      521.166    -982.870    -255.034
  O      522.354    -983.535    -255.402
  H      520.561    -982.711    -255.932
  H      521.408    -981.892    -254.599
  H      520.581    -983.457    -254.321
  P      523.191    -984.288    -254.270
  C      523.226    -986.610    -255.418
  O      522.788    -985.849    -254.292
  C      522.080    -987.424    -256.024
  O      521.115    -986.543    -256.618
  C      522.572    -988.371    -257.126
  O      523.021    -989.644    -256.665
  C      521.303    -988.511    -257.983
  O      520.482    -989.594    -257.520
  C      520.604    -987.166    -257.811
  N      519.442    -986.165    -262.679
  C      519.182    -987.323    -261.950
  N      518.597    -988.324    -262.616
  N      519.525    -987.469    -260.687
  C      520.204    -986.398    -260.196
  C      520.505    -985.218    -260.825
  C      520.079    -985.036    -262.198
  O      520.253    -984.040    -262.874
  N      521.238    -984.373    -259.999
  C      521.434    -985.093    -258.929
  N      520.755    -986.286    -258.951
  O      522.514    -983.778    -252.900
  O      524.667    -984.015    -254.264
  H      520.881    -990.431    -257.831
  H      523.182    -983.757    -252.199
  H      519.128    -986.119    -263.648
  H      522.030    -984.776    -258.063
  H      519.517    -987.316    -257.660
  H      521.572    -988.745    -259.024
  H      518.407    -988.320    -263.615
  H      523.339    -987.883    -257.744
  H      518.579    -989.257    -262.188
  H      521.572    -987.987    -255.229
  H      524.011    -987.274    -255.048
  H      523.670    -985.946    -256.172
  P      524.471    -990.185    -257.055
  C      525.249    -991.034    -254.696
  O      525.396    -990.117    -255.770
  O      525.056    -989.007    -258.003
  O      524.499    -991.512    -257.743
  H      524.953    -989.236    -258.919
  H      525.968    -990.811    -253.936
  H      525.405    -992.030    -255.054
  H      524.263    -990.951    -254.289

 6  7  8  9  10  11  12  13  14  15  26  29  33  34 0
 6-311+G(2d,p)
 ****
 36  38  39  40  41 0
 6-311+G(2d,p)
 ****
 1  2  3  4  5  16  17  18  19  20  21  22  23  24  25 0
 3-21G
 ****
 27  28  30  31  32  35  37  42  43  44  45  46  47 0
 3-21G
 ****
 48  49 0
 3-21G
 ****


