%nproc=1
%NoSave
%Mem=1900MB
#P OB98/GEN NMR

erre ene a

0 1
  C      126.574    -410.469    -148.228
  O      126.988    -410.541    -149.577
  H      126.165    -409.472    -148.042
  H      127.423    -410.632    -147.565
  H      125.793    -411.210    -148.028
  P      127.609    -411.943    -150.060
  C      128.028    -412.946    -152.429
  O      127.908    -411.784    -151.626
  C      127.739    -412.616    -153.898
  O      126.333    -412.248    -154.028
  C      128.557    -411.438    -154.444
  O      128.737    -411.637    -155.857
  C      127.612    -410.269    -154.209
  O      128.027    -409.131    -154.932
  C      126.291    -410.926    -154.616
  N      122.402    -407.932    -156.050
  C      123.374    -408.542    -156.755
  N      124.368    -409.337    -156.309
  C      124.289    -409.489    -154.973
  C      123.351    -408.943    -154.117
  C      122.368    -408.120    -154.706
  N      121.382    -407.492    -153.980
  N      123.589    -409.328    -152.804
  C      124.652    -410.097    -152.876
  N      125.118    -410.221    -154.160
  O      126.347    -412.935    -150.009
  O      128.751    -412.456    -149.249
  H      128.914    -408.831    -154.638
  H      126.339    -413.417    -149.161
  H      123.353    -408.365    -157.832
  H      125.140    -410.583    -152.033
  H      126.215    -411.046    -155.702
  H      127.598    -409.985    -153.148
  H      129.534    -411.326    -153.969
  H      127.888    -413.520    -154.510
  H      127.309    -413.696    -152.065
  H      129.043    -413.353    -152.339
  H      120.725    -406.905    -154.478
  H      121.353    -407.610    -152.977
  P      130.219    -411.891    -156.436
  C      131.057    -412.575    -158.824
  O      130.167    -411.790    -158.038
  O      130.400    -413.467    -156.204
  O      131.312    -411.129    -155.764
  H      131.342    -413.672    -156.097
  H      130.882    -412.381    -159.862
  H      130.891    -413.613    -158.622
  H      132.067    -412.322    -158.579

 6  7  8  9  10  11  12  13  14  15  25  28  32  33  34  35 0
 6-311+G(2d,p)
 ****
 36  37  40 0
 6-311+G(2d,p)
 ****
 1  2  3  4  5  16  17  18  19  20  21  22  23  24 0
 3-21G
 ****
 26  27  29  30  31  38  39 41  42  43  44  45  46  47  48 0
 3-21G
 ****


