%nproc=1
%NoSave
%Mem=1900MB
#P OB98/GEN NMR

erre ene a

0 1
  C      178.622     -17.749     -31.073
  O      179.090     -16.772     -31.980
  H      178.753     -18.736     -31.525
  H      177.559     -17.597     -30.871
  H      179.188     -17.716     -30.138
  P      179.182     -15.249     -31.492
  C      181.603     -15.282     -30.596
  O      180.223     -15.215     -30.274
  C      182.414     -14.315     -29.725
  O      182.333     -14.761     -28.337
  C      183.911     -14.238     -30.088
  O      184.355     -12.914     -29.758
  C      184.489     -15.270     -29.136
  O      185.890     -15.215     -29.064
  C      183.692     -14.918     -27.871
  N      183.758     -15.900     -26.797
  C      184.928     -15.956     -26.044
  O      185.909     -15.234     -26.219
  N      184.948     -16.901     -25.050
  C      183.937     -17.758     -24.735
  O      184.002     -18.562     -23.812
  C      182.731     -17.656     -25.570
  C      182.695     -16.743     -26.543
  O      177.880     -14.570     -31.230
  O      179.995     -14.526     -32.669
  H      179.375     -14.032     -33.239
  H      186.219     -16.011     -28.593
  H      185.787     -16.953     -24.491
  H      181.913     -18.331     -25.353
  H      181.814     -16.637     -27.168
  H      184.013     -13.944     -27.488
  H      184.246     -16.277     -29.484
  H      184.106     -14.437     -31.145
  H      181.946     -13.323     -29.768
  H      181.722     -15.015     -31.651
  H      181.958     -16.308     -30.447
  P      184.269     -11.674     -30.773
  C      182.693     -10.042     -29.524
  O      182.833     -10.979     -30.589
  O      184.587     -12.027     -32.190
  O      185.299     -10.588     -30.205
  H      185.614     -10.023     -30.935
  H      181.694      -9.658     -29.516
  H      183.384      -9.237     -29.664
  H      182.896     -10.528     -28.593

 6  7  8  9  10  11  12  13  14  15  16  27  31  32  33  34  35 0
 6-311+G(2d,p)
 ****
 36  37 0
 6-311+G(2d,p)
 ****
 1  2  3  4  5  17  18  19  20  21  22  23  24  25 0
 3-21G
 ****
 26  28  29  30  38  39  40  41  42  43  44  45 0
 3-21G
 ****


