%nproc=1
%NoSave
%Mem=1900MB
#P OB98/GEN NMR

erre ene a

0 1
  C      889.806     149.854     258.859
  O      889.246     148.699     259.439
  P      889.229     147.305     258.625
  C      886.663     147.229     258.388
  O      887.917     147.348     257.705
  C      885.632     148.166     257.761
  O      886.263     149.417     257.356
  C      884.990     147.633     256.495
  O      884.160     146.493     256.608
  C      884.357     148.898     255.918
  O      883.101     149.181     256.558
  C      885.411     149.960     256.294
  N      886.206     150.395     255.140
  C      885.836     151.594     254.554
  O      884.910     152.294     254.974
  N      886.560     151.971     253.455
  C      887.545     151.249     252.850
  O      888.116     151.615     251.834
  C      887.888     149.975     253.501
  C      887.206     149.603     254.596
  O      889.376     146.082     259.462
  O      890.401     147.500     257.546
  H      882.551     148.385     256.442
  H      890.275     148.255     256.941
  H      886.291     152.830     253.007
  H      888.681     149.375     253.054
  H      887.434     148.657     255.098
  H      884.922     150.851     256.712
  H      884.164     148.798     254.845
  H      885.798     147.341     255.803
  H      884.885     148.413     258.526
  H      886.813     147.504     259.445
  H      886.315     146.190     258.360
  P      884.458     145.107     255.862
  C      882.612     145.435     254.063
  O      883.978     145.253     254.340
  O      884.080     143.854     256.578
  O      886.059     145.152     255.706
  H      886.405     144.244     255.738
  H      882.475     145.484     252.976
  H      882.262     146.381     254.498
  H      882.032     144.607     254.480
  H      889.726     150.672     259.544
  H      889.281     150.091     257.957
  H      890.837     149.676     258.635

 3  4  5  6  7  8  9  10  11  12  13  23  28  29  30  31  32 0
 6-311+G(2d,p)
 ****
 33  34 0
 6-311+G(2d,p)
 ****
 1  2  14  15  16  17  18  19  20  21  22  24  25  26  27 0
 3-21G
 ****
 35  36  37  38  39  40  41  42  43  44  45 0
 3-21G
 ****


