%nproc=1
%NoSave
%Mem=1900MB
#P OB98/GEN NMR

erre ene a

0 1
  C     -106.657    -125.600     685.708
  O     -106.736    -127.010     685.613
  H     -107.573    -125.167     685.299
  H     -105.807    -125.219     685.129
  H     -106.553    -125.294     686.752
  P     -105.442    -127.871     686.003
  C     -105.835    -129.110     683.762
  O     -104.894    -128.474     684.623
  C     -105.266    -129.213     682.351
  O     -105.095    -127.900     681.778
  C     -103.889    -129.869     682.305
  O     -103.992    -131.269     682.466
  C     -103.394    -129.392     680.950
  O     -103.950    -130.187     679.891
  C     -103.940    -127.944     680.905
  N     -102.948    -126.957     681.299
  C     -102.106    -126.494     680.278
  O     -102.229    -126.916     679.130
  N     -101.135    -125.580     680.600
  C     -101.013    -125.153     681.816
  N     -100.025    -124.252     682.065
  C     -101.887    -125.602     682.921
  C     -102.814    -126.504     682.592
  O     -105.607    -128.885     687.096
  O     -104.350    -126.760     686.375
  H     -103.581    -129.825     679.059
  H     -104.395    -126.540     687.329
  H     -101.754    -125.214     683.914
  H     -103.506    -126.879     683.340
  H     -104.293    -127.700     679.899
  H     -102.309    -129.456     680.874
  H     -103.242    -129.433     683.077
  H     -105.985    -129.761     681.728
  H      -99.441    -123.975     681.277
  H     -106.739    -128.494     683.758
  H      -99.897    -123.781     682.956
  H     -106.095    -130.106     684.139
  P     -103.062    -132.040     683.526
  C     -103.887    -134.285     682.559
  O     -102.754    -133.473     682.861
  O     -103.591    -132.079     684.919
  O     -101.659    -131.274     683.399
  H     -101.692    -130.387     683.826
  H     -103.560    -135.206     682.124
  H     -104.521    -133.770     681.868
  H     -104.430    -134.488     683.458

 6  7  8  9  10  11  12  13  14  15  16  26  30  31  32  33  35 0
 6-311+G(2d,p)
 ****
 37  38 0
 6-311+G(2d,p)
 ****
 1  2  3  4  5  17  18  19  20  21  22  23  24  25 0
 3-21G
 ****
 27  28  29  34  36  39  40  41  42  43  44  45  46 0
 3-21G
 ****


