%nproc=1
%NoSave
%Mem=1900MB
#P OB98/GEN NMR

erre ene a

0 1
  C     -155.455    -106.344     -70.746
  O     -156.584    -105.491     -70.715
  H     -154.897    -106.225     -69.811
  H     -154.792    -106.085     -71.575
  H     -155.771    -107.386     -70.841
  P     -157.478    -105.363     -72.038
  C     -157.078    -102.804     -72.060
  O     -156.967    -104.030     -72.772
  C     -155.778    -102.011     -72.167
  O     -154.643    -102.874     -71.936
  C     -155.556    -101.398     -73.548
  O     -156.374    -100.262     -73.727
  C     -154.063    -101.141     -73.512
  O     -153.761     -99.943     -72.791
  C     -153.554    -102.391     -72.752
  N     -153.063    -103.435     -73.644
  C     -151.804    -103.210     -74.219
  O     -151.175    -102.183     -73.955
  N     -151.313    -104.153     -75.094
  C     -151.997    -105.219     -75.359
  N     -151.451    -106.104     -76.228
  C     -153.316    -105.502     -74.760
  C     -153.787    -104.574     -73.929
  O     -158.959    -105.442     -71.863
  O     -156.920    -106.532     -72.984
  H     -152.809     -99.992     -72.576
  H     -157.409    -107.362     -72.825
  H     -153.851    -106.406     -75.008
  H     -154.754    -104.699     -73.447
  H     -152.745    -102.114     -72.062
  H     -153.656    -101.038     -74.516
  H     -155.758    -102.150     -74.325
  H     -155.777    -101.235     -71.390
  H     -150.541    -105.870     -76.621
  H     -157.283    -103.052     -71.007
  H     -151.847    -107.011     -76.439
  H     -157.916    -102.205     -72.439
  P     -157.579    -100.282     -74.794
  C     -156.305     -98.397     -76.015
  O     -156.966     -99.657     -76.142
  O     -158.853     -99.665     -74.318
  O     -157.723    -101.838     -75.150
  H     -158.150    -102.341     -74.418
  H     -155.942     -98.086     -76.973
  H     -155.483     -98.492     -75.336
  H     -156.994     -97.669     -75.641

 6  7  8  9  10  11  12  13  14  15  16  26  30  31  32  33  35 0
 6-311+G(2d,p)
 ****
 37  38 0
 6-311+G(2d,p)
 ****
 1  2  3  4  5  17  18  19  20  21  22  23  24  25 0
 3-21G
 ****
 27  28  29  34  36  39  40  41  42  43  44  45  46 0
 3-21G
 ****


