%nproc=1
%NoSave
%Mem=1900MB
#P OB98/GEN NMR

erre ene a

0 1
  C      -48.040     192.896      12.063
  O      -48.167     193.617      10.852
  H      -47.107     193.190      12.551
  H      -48.008     191.822      11.861
  H      -48.877     193.126      12.729
  P      -49.454     193.276       9.955
  C      -47.760     192.119       8.368
  O      -48.902     192.956       8.480
  C      -47.452     191.827       6.901
  O      -48.624     191.327       6.224
  C      -46.966     193.036       6.110
  O      -45.574     193.238       6.292
  C      -47.320     192.622       4.689
  O      -46.332     191.714       4.155
  C      -48.665     191.906       4.888
  N      -53.701     191.916       4.499
  C      -52.811     190.861       4.543
  N      -53.337     189.619       4.442
  N      -51.518     191.003       4.665
  C      -51.124     192.299       4.698
  C      -51.907     193.433       4.660
  C      -53.342     193.257       4.582
  O      -54.187     194.150       4.623
  N      -51.140     194.568       4.735
  C      -49.898     194.121       4.782
  N      -49.837     192.752       4.757
  O      -50.173     194.698       9.778
  O      -50.389     192.268      10.531
  H      -46.236     190.955       4.758
  H      -51.139     194.566       9.804
  H      -54.689     191.747       4.440
  H      -49.014     194.745       4.848
  H      -48.795     191.078       4.181
  H      -47.347     193.478       4.015
  H      -54.260     189.459       4.063
  H      -47.535     193.936       6.376
  H      -52.677     188.852       4.399
  H      -46.700     191.026       6.875
  H      -47.959     191.178       8.891
  H      -46.901     192.614       8.837
  P      -45.042     194.740       6.458
  C      -44.536     195.467       4.015
  O      -44.010     195.034       5.262
  O      -44.097     194.644       7.750
  O      -46.109     195.764       6.651
  H      -44.547     195.047       8.517
  H      -43.734     195.621       3.324
  H      -45.069     196.384       4.152
  H      -45.201     194.722       3.630

 6  7  8  9  10  11  12  13  14  15  26  29  33  34 0
 6-311+G(2d,p)
 ****
 36  38  39  40  41 0
 6-311+G(2d,p)
 ****
 1  2  3  4  5  16  17  18  19  20  21  22  23  24  25 0
 3-21G
 ****
 27  28  30  31  32  35  37  42  43  44  45  46  47 0
 3-21G
 ****
 48  49 0
 3-21G
 ****


