%nproc=1
%NoSave
%Mem=1900MB
#P OB98/GEN NMR

erre ene a

0 1
  C     -113.902     206.716    -127.768
  O     -113.525     208.093    -127.875
  P     -113.801     208.827    -129.277
  C     -113.557     211.313    -130.069
  O     -113.623     210.393    -128.987
  C     -114.047     212.687    -129.616
  O     -115.468     212.655    -129.329
  C     -113.390     213.193    -128.338
  O     -112.062     213.632    -128.579
  C     -114.363     214.291    -127.927
  O     -114.113     215.490    -128.680
  C     -115.722     213.684    -128.344
  N     -116.485     213.166    -127.217
  C     -116.612     214.024    -126.126
  O     -116.098     215.142    -126.085
  N     -117.337     213.542    -125.066
  C     -117.905     212.303    -124.986
  O     -118.552     211.930    -124.014
  C     -117.695     211.426    -126.146
  C     -117.006     211.889    -127.193
  O     -115.379     208.625    -129.424
  O     -112.982     208.273    -130.396
  H     -115.850     208.659    -128.575
  H     -114.454     215.326    -129.581
  H     -117.452     214.154    -124.273
  H     -118.113     210.426    -126.103
  H     -116.836     211.254    -128.057
  H     -116.336     214.442    -128.848
  H     -114.282     214.546    -126.868
  H     -113.387     212.399    -127.582
  H     -113.878     213.397    -130.436
  H     -114.184     210.963    -130.893
  H     -112.527     211.360    -130.431
  P     -110.885     212.809    -127.857
  C     -108.318     212.681    -128.342
  O     -109.507     213.440    -128.373
  O     -110.979     211.402    -128.618
  O     -111.039     212.719    -126.376
  H     -111.083     211.495    -129.578
  H     -107.597     213.129    -129.031
  H     -108.497     211.648    -128.646
  H     -107.899     212.699    -127.333
  H     -113.663     206.356    -126.789
  H     -113.370     206.143    -128.498
  H     -114.954     206.620    -127.937

 3  4  5  6  7  8  9  10  11  12  13  24  28  29  30  31  32 0
 6-311+G(2d,p)
 ****
 33  34 0
 6-311+G(2d,p)
 ****
 1  2  14  15  16  17  18  19  20  21  22  23  25  26  27 0
 3-21G
 ****
 35  36  37  38  39  40  41  42  43  44  45 0
 3-21G
 ****


