%nproc=1
%NoSave
%Mem=1900MB
#P OB98/GEN NMR

erre ene a

0 1
  C      385.632     489.795    -750.916
  O      385.731     489.866    -749.512
  H      385.632     490.807    -751.321
  H      384.696     489.300    -751.196
  H      386.476     489.246    -751.343
  P      386.111     488.544    -748.692
  C      388.290     489.305    -747.536
  O      387.712     488.517    -748.557
  C      389.814     489.152    -747.510
  O      390.159     487.747    -747.399
  C      390.423     489.657    -748.820
  O      391.753     490.140    -748.645
  C      390.467     488.396    -749.677
  O      391.416     488.481    -750.740
  C      390.793     487.336    -748.638
  N      392.105     482.672    -750.193
  C      392.881     483.810    -750.070
  N      394.189     483.681    -750.427
  N      392.431     484.962    -749.645
  C      391.104     484.951    -749.389
  C      390.213     483.899    -749.496
  C      390.737     482.614    -749.931
  O      390.087     481.587    -750.081
  N      388.939     484.278    -749.177
  C      389.042     485.561    -748.886
  N      390.339     486.011    -748.981
  O      385.828     487.359    -749.728
  O      385.364     488.338    -747.409
  H      391.080     489.140    -751.383
  H      385.647     486.529    -749.257
  H      392.506     481.804    -750.507
  H      388.218     486.204    -748.580
  H      391.865     487.285    -748.455
  H      389.481     488.266    -750.136
  H      394.528     482.878    -750.918
  H      389.817     490.445    -749.282
  H      394.688     484.556    -750.623
  H      390.231     489.655    -746.626
  H      387.871     488.967    -746.586
  H      388.012     490.358    -747.664
  P      391.950     491.717    -748.421
  C      393.037     491.618    -746.030
  O      391.939     491.990    -746.839
  O      390.561     492.350    -748.937
  O      393.125     492.285    -749.133
  H      390.700     492.778    -749.806
  H      392.837     491.883    -745.013
  H      393.916     492.128    -746.365
  H      393.190     490.561    -746.100

 6  7  8  9  10  11  12  13  14  15  26  29  33  34 0
 6-311+G(2d,p)
 ****
 36  38  39  40  41 0
 6-311+G(2d,p)
 ****
 1  2  3  4  5  16  17  18  19  20  21  22  23  24  25 0
 3-21G
 ****
 27  28  30  31  32  35  37  42  43  44  45  46  47 0
 3-21G
 ****
 48  49 0
 3-21G
 ****


