%nproc=1
%NoSave
%Mem=1900MB
#P OB98/GEN NMR

erre ene a

0 1
  C      265.597     414.395     366.797
  O      265.496     415.819     366.945
  P      266.515     416.695     367.827
  C      264.884     417.547     369.645
  O      265.682     417.884     368.523
  C      264.279     418.802     370.283
  O      263.111     419.225     369.543
  C      263.779     418.637     371.712
  O      264.835     418.544     372.652
  C      262.902     419.876     371.865
  O      263.676     421.023     372.240
  C      262.342     420.062     370.441
  N      260.917     419.759     370.338
  C      260.036     420.810     370.629
  O      260.465     421.895     371.027
  N      258.686     420.590     370.479
  C      258.258     419.403     370.175
  N      256.916     419.253     370.019
  C      259.146     418.243     369.994
  C      260.451     418.491     370.091
  O      267.716     417.166     367.071
  O      266.937     415.754     369.051
  H      267.817     416.015     369.378
  H      264.013     420.849     373.144
  H      258.744     417.262     369.780
  H      261.183     417.691     369.958
  H      262.514     421.092     370.099
  H      262.127     419.743     372.634
  H      263.146     417.734     371.766
  H      265.032     419.602     370.236
  H      256.333     420.074     370.139
  H      265.522     417.048     370.387
  H      256.477     418.379     369.758
  H      264.098     416.847     369.341
  P      264.548     417.710     373.985
  C      265.366     419.308     375.870
  O      265.625     418.154     375.083
  O      264.991     416.215     373.602
  O      263.126     417.748     374.458
  H      264.366     415.574     373.996
  H      265.876     419.202     376.829
  H      264.288     419.436     376.049
  H      265.754     420.187     375.352
  H      264.808     414.045     366.165
  H      265.518     413.930     367.757
  H      266.541     414.148     366.358

 3  4  5  6  7  8  9  10  11  12  13  24  27  28  29  30  32 0
 6-311+G(2d,p)
 ****
 34  35 0
 6-311+G(2d,p)
 ****
 1  2  14  15  16  17  18  19  20  21  22  23  25  26 0
 3-21G
 ****
 31  33  36  37  38  39  40  41  42  43  44  45  46 0
 3-21G
 ****


