%nproc=1
%NoSave
%Mem=1900MB
#P OB98/GEN NMR

erre ene a

0 1
  C      270.131     -74.445       9.553
  O      269.806     -75.469       8.631
  P      270.613     -76.857       8.768
  C      270.532     -79.137       7.498
  O      269.923     -77.879       7.744
  C      269.500     -80.098       6.899
  O      268.355     -80.212       7.773
  C      268.957     -79.668       5.540
  O      269.859     -80.036       4.507
  C      267.630     -80.415       5.492
  O      267.825     -81.784       5.097
  C      267.162     -80.322       6.954
  N      262.583     -79.004       8.656
  C      263.091     -80.256       8.359
  N      262.282     -81.312       8.591
  N      264.294     -80.456       7.878
  C      264.989     -79.310       7.686
  C      264.586     -78.013       7.923
  C      263.277     -77.814       8.502
  O      262.812     -76.738       8.872
  N      265.558     -77.112       7.578
  C      266.556     -77.862       7.157
  N      266.273     -79.203       7.223
  O      270.176     -77.387      10.208
  O      272.096     -76.741       8.619
  H      266.961     -82.238       5.071
  H      270.854     -77.176      10.878
  H      261.655     -78.916       9.039
  H      267.510     -77.486       6.821
  H      266.631     -81.228       7.273
  H      266.938     -79.979       4.771
  H      261.336     -81.232       8.938
  H      268.774     -78.586       5.530
  H      262.638     -82.234       8.378
  H      269.963     -81.086       6.830
  H      270.901     -79.547       8.440
  H      271.377     -79.001       6.811
  P      269.454     -79.645       3.005
  C      270.802     -79.078       0.854
  O      270.790     -79.148       2.268
  O      268.594     -78.310       3.184
  O      268.683     -80.695       2.278
  H      267.875     -78.290       2.525
  H      271.486     -78.280       0.552
  H      269.808     -78.869       0.450
  H      271.161     -80.029       0.454
  H      269.529     -73.583       9.356
  H      271.165     -74.189       9.451
  H      269.945     -74.790      10.549

 3  4  5  6  7  8  9  10  11  12  23  26  30  31 0
 6-311+G(2d,p)
 ****
 33  35  36  37  38 0
 6-311+G(2d,p)
 ****
 1  2  13  14  15  16  17  18  19  20  21  22  24  25 0
 3-21G
 ****
 27  28  29  32  34  39  40  41  42  43  44  45  46  47  48  49 0
 3-21G
 ****


