%nproc=1
%NoSave
%Mem=1900MB
#P OB98/GEN NMR

erre ene a

0 1
  C     -146.032     275.969     469.615
  O     -146.376     275.368     470.848
  H     -146.856     275.871     468.905
  H     -145.836     277.035     469.785
  H     -145.129     275.505     469.210
  P     -146.742     273.808     470.817
  C     -145.328     273.033     472.851
  O     -145.480     273.016     471.435
  C     -143.860     273.241     473.219
  O     -143.428     274.512     472.675
  C     -143.562     273.242     474.728
  O     -142.613     272.224     475.054
  C     -142.926     274.591     474.996
  O     -141.842     274.542     475.908
  C     -142.476     275.045     473.610
  N     -139.345     279.044     473.147
  C     -139.186     277.741     472.834
  N     -140.092     276.742     472.881
  C     -141.290     277.215     473.277
  C     -141.616     278.526     473.606
  C     -140.576     279.458     473.546
  N     -140.727     280.779     473.914
  N     -142.953     278.615     473.974
  C     -143.411     277.381     473.918
  N     -142.434     276.497     473.514
  O     -146.677     273.449     469.253
  O     -148.063     273.449     471.410
  H     -141.384     275.398     475.849
  H     -147.472     272.943     468.998
  H     -138.184     277.456     472.508
  H     -144.406     277.059     474.190
  H     -141.488     274.662     473.347
  H     -143.694     275.267     475.405
  H     -144.471     273.103     475.336
  H     -143.267     272.458     472.716
  H     -145.664     272.071     473.264
  H     -139.900     281.355     473.954
  H     -141.610     281.074     474.321
  H     -145.948     273.830     473.269
  P     -143.197     270.811     475.553
  C     -142.039     269.218     473.851
  O     -143.242     269.824     474.280
  O     -144.744     271.143     475.817
  O     -142.524     270.275     476.771
  H     -145.106     270.542     476.500
  H     -142.235     268.597     473.002
  H     -141.638     268.622     474.644
  H     -141.334     269.976     473.583

 6  7  8  9  10  11  12  13  14  15  25  28  32  33  34  35 0
 6-311+G(2d,p)
 ****
 36  39  40 0
 6-311+G(2d,p)
 ****
 1  2  3  4  5  16  17  18  19  20  21  22  23  24 0
 3-21G
 ****
 26  27  29  30  31  37  38  41  42  43  44  45  46  47  48 0
 3-21G
 ****


