%nproc=1
%NoSave
%Mem=1900MB
#P OB98/GEN NMR

erre ene a

0 1
  C     -193.986     -12.213     189.567
  O     -194.717     -12.987     188.630
  P     -194.135     -13.104     187.135
  C     -193.525     -11.401     185.258
  O     -194.086     -11.612     186.544
  C     -193.073      -9.948     185.102
  O     -192.158      -9.628     186.184
  C     -192.347      -9.635     183.789
  O     -192.663      -8.280     183.448
  C     -190.882      -9.737     184.174
  O     -190.026      -9.036     183.276
  C     -190.923      -9.170     185.589
  N     -185.897      -8.968     186.125
  C     -186.701      -8.461     185.118
  N     -186.077      -7.750     184.155
  N     -187.997      -8.633     185.065
  C     -188.478      -9.350     186.109
  C     -187.780      -9.935     187.143
  C     -186.355      -9.706     187.206
  O     -185.619     -10.061     188.122
  N     -188.608     -10.662     187.959
  C     -189.812     -10.447     187.469
  N     -189.793      -9.620     186.377
  O     -195.338     -13.788     186.338
  O     -192.850     -13.858     186.997
  H     -189.130      -9.016     183.668
  H     -195.228     -14.759     186.298
  H     -184.907      -8.785     186.121
  H     -190.732     -10.853     187.862
  H     -190.922      -8.074     185.605
  H     -190.572     -10.790     184.179
  H     -185.089      -7.554     184.150
  H     -192.616     -10.307     182.969
  H     -186.651      -7.341     183.425
  H     -193.951      -9.298     185.217
  H     -194.287     -11.611     184.501
  H     -192.686     -12.088     185.106
  P     -192.835      -7.919     181.893
  C     -191.318      -8.034     179.797
  O     -191.391      -8.013     181.209
  O     -193.124      -6.342     181.925
  O     -193.942      -8.645     181.202
  H     -193.714      -6.103     181.190
  H     -190.321      -7.700     179.495
  H     -192.061      -7.370     179.345
  H     -191.475      -9.054     179.438
  H     -194.490     -12.226     190.511
  H     -193.912     -11.205     189.216
  H     -193.005     -12.624     189.681

 3  4  5  6  7  8  9  10  11  12  23  26  30  31 0
 6-311+G(2d,p)
 ****
 33  35  36  37  38 0
 6-311+G(2d,p)
 ****
 1  2  13  14  15  16  17  18  19  20  21  22  24  25 0
 3-21G
 ****
 27  28  29  32  34  39  40  41  42  43  44  45  46  47  48  49 0
 3-21G
 ****


