%nproc=1
%NoSave
%Mem=1900MB
#P OB98/GEN NMR

erre ene a

0 1
  C       -8.999      32.387       3.551
  O      -10.183      32.167       2.808
  H       -9.156      33.242       4.213
  H       -8.166      32.609       2.880
  H       -8.770      31.508       4.159
  P      -10.150      30.969       1.742
  C       -8.686      30.553      -0.352
  O       -9.200      31.507       0.567
  C       -8.191      31.243      -1.619
  O       -9.306      31.682      -2.415
  C       -7.332      32.476      -1.369
  O       -5.988      32.101      -1.119
  C       -7.469      33.199      -2.700
  O       -6.566      32.617      -3.661
  C       -8.923      32.901      -3.103
  N      -12.479      36.094      -4.976
  C      -11.573      35.303      -5.589
  N      -10.622      34.524      -5.030
  C      -10.668      34.603      -3.690
  C      -11.535      35.369      -2.926
  C      -12.480      36.139      -3.624
  N      -13.402      36.946      -2.994
  N      -11.283      35.201      -1.581
  C      -10.321      34.303      -1.534
  N       -9.888      33.937      -2.783
  O      -11.478      30.438       1.325
  O       -9.204      29.918       2.495
  H       -5.668      32.698      -3.289
  H       -8.463      30.376       2.930
  H      -11.614      35.298      -6.674
  H       -9.916      33.871      -0.625
  H       -9.015      32.712      -4.179
  H       -7.219      34.259      -2.631
  H       -7.746      33.106      -0.574
  H       -7.641      30.500      -2.214
  H       -9.460      29.819      -0.608
  H      -13.906      37.604      -3.568
  H      -13.314      37.075      -1.996
  H       -7.863      30.027       0.142
  P       -5.067      32.945      -0.112
  C       -4.205      35.365      -0.207
  O       -4.590      34.221      -0.959
  O       -3.986      32.159       0.543
  O       -6.099      33.574       0.934
  H       -5.622      33.881       1.728
  H       -3.908      36.147      -0.874
  H       -3.385      35.112       0.433
  H       -5.031      35.697       0.386

 6  7  8  9  10  11  12  13  14  15  25  28  32  33  34  35 0
 6-311+G(2d,p)
 ****
 36  39  40 0
 6-311+G(2d,p)
 ****
 1  2  3  4  5  16  17  18  19  20  21  22  23  24 0
 3-21G
 ****
 26  27  29  30  31  37  38  41  42  43  44  45  46  47 0
 3-21G
 ****
 48 0
 3-21G
 ****


