%nproc=1
%NoSave
%Mem=1900MB
#P OB98/GEN NMR

erre ene a

0 1
  C        7.842     -11.016     -21.818
  O        8.340     -12.339     -21.876
  H        6.793     -11.050     -21.512
  H        7.904     -10.540     -22.800
  H        8.401     -10.429     -21.084
  P        9.866     -12.555     -22.308
  C        9.444     -13.455     -24.691
  O        9.903     -12.367     -23.900
  C        9.689     -13.168     -26.167
  O        8.768     -12.170     -26.645
  C       11.093     -12.647     -26.473
  O       12.018     -13.720     -26.535
  C       10.852     -11.983     -27.819
  O       10.769     -12.988     -28.847
  C        9.476     -11.331     -27.599
  N        9.104      -6.405     -28.736
  C        9.059      -7.512     -29.562
  N        8.941      -7.266     -30.884
  N        9.143      -8.744     -29.132
  C        9.330      -8.831     -27.795
  C        9.407      -7.809     -26.877
  C        9.256      -6.452     -27.358
  O        9.273      -5.444     -26.658
  N        9.667      -8.283     -25.617
  C        9.708      -9.592     -25.767
  N        9.524      -9.976     -27.074
  O       10.517     -13.820     -21.835
  O       10.615     -11.252     -21.764
  H       10.508     -12.527     -29.666
  H       10.980     -11.401     -20.873
  H        9.052      -5.481     -29.130
  H        9.865     -10.305     -24.966
  H        8.880     -11.300     -28.517
  H       11.643     -11.290     -28.103
  H        9.158      -6.360     -31.281
  H       11.405     -11.879     -25.758
  H        8.957      -8.061     -31.510
  H        9.484     -14.089     -26.727
  H        8.373     -13.577     -24.496
  H        9.960     -14.378     -24.405
  P       13.526     -13.545     -26.013
  C       14.533     -13.156     -28.360
  O       14.230     -12.591     -27.092
  O       14.248     -14.821     -25.744
  O       13.401     -12.592     -24.739
  H       13.246     -13.081     -23.893
  H       14.997     -12.416     -28.979
  H       13.630     -13.495     -28.824
  H       15.200     -13.983     -28.232

 6  7  8  9  10  11  12  13  14  15  26  29  33  34 0
 6-311+G(2d,p)
 ****
 36  38  39  40  41 0
 6-311+G(2d,p)
 ****
 1  2  3  4  5  16  17  18  19  20  21  22  23  24  25 0
 3-21G
 ****
 27  28  30  31  32  35  37  42  43  44  45  46  47 0
 3-21G
 ****
 48  49 0
 3-21G
 ****


