%nproc=1
%NoSave
%Mem=1900MB
#P OB98/GEN NMR

erre ene a

0 1
  C     -698.752     807.097     159.011
  O     -699.023     806.893     157.641
  H     -697.950     807.835     159.102
  H     -698.423     806.160     159.479
  H     -699.639     807.483     159.516
  P     -700.143     805.799     157.287
  C     -700.089     803.250     156.871
  O     -699.315     804.422     157.112
  C     -699.255     802.228     156.079
  O     -698.693     802.883     154.924
  C     -698.095     801.628     156.887
  O     -697.929     800.256     156.512
  C     -696.891     802.430     156.409
  O     -695.667     801.738     156.608
  C     -697.261     802.666     154.947
  N     -692.678     804.357     153.465
  C     -693.123     803.127     153.815
  N     -694.377     802.763     154.169
  C     -695.225     803.814     154.092
  C     -694.915     805.122     153.766
  C     -693.570     805.391     153.439
  N     -693.098     806.631     153.129
  N     -696.052     805.912     153.847
  C     -697.013     805.100     154.218
  N     -696.556     803.816     154.403
  O     -701.042     806.145     156.147
  O     -700.867     805.590     158.697
  H     -695.657     800.945     156.031
  H     -700.218     805.490     159.419
  H     -692.380     802.333     153.806
  H     -698.058     805.389     154.377
  H     -697.033     801.809     154.305
  H     -696.832     803.385     156.951
  H     -698.236     801.711     157.965
  H     -699.925     801.448     155.711
  H     -700.990     803.509     156.289
  H     -692.118     806.741     152.907
  H     -693.736     807.418     153.096
  H     -700.399     802.837     157.834
  P     -698.700     799.130     157.354
  C     -698.169     797.385     159.196
  O     -697.659     798.442     158.382
  O     -699.518     798.169     156.552
  O     -699.644     799.991     158.327
  H     -700.521     799.566     158.388
  H     -697.390     797.015     159.829
  H     -698.527     796.594     158.571
  H     -698.972     797.755     159.798

 6  7  8  9  10  11  12  13  14  15  25  28  32  33  34  35 0
 6-311+G(2d,p)
 ****
 36  39  40 0
 6-311+G(2d,p)
 ****
 1  2  3  4  5  16  17  18  19  20  21  22  23  24 0
 3-21G
 ****
 26  27  29  30  31  37  38  41  42  43  44  45  46  47 0
 3-21G
 ****
 48 0
 3-21G
 ****


