%nproc=1
%NoSave
%Mem=1900MB
#P OB98/GEN NMR

erre ene a

0 1
  C      -87.932     319.563      42.364
  O      -87.166     320.340      41.458
  P      -86.278     319.652      40.306
  C      -84.065     318.316      40.309
  O      -85.122     318.851      41.081
  C      -82.920     317.860      41.218
  O      -83.434     316.868      42.146
  C      -81.733     317.224      40.475
  O      -80.546     317.589      41.191
  C      -82.004     315.740      40.609
  O      -80.835     314.955      40.444
  C      -82.621     315.682      42.012
  N      -83.412     314.477      42.227
  C      -82.733     313.313      42.585
  O      -81.506     313.298      42.690
  N      -83.464     312.170      42.820
  C      -84.746     312.171      42.627
  N      -85.432     311.035      42.932
  C      -85.488     313.355      42.142
  C      -84.768     314.463      41.991
  O      -85.789     320.584      39.254
  O      -87.195     318.467      39.756
  H      -80.101     315.393      40.913
  H      -87.829     318.761      39.058
  H      -86.552     313.297      41.974
  H      -85.231     315.383      41.664
  H      -81.834     315.753      42.775
  H      -82.730     315.433      39.848
  H      -81.654     317.568      39.441
  H      -82.586     318.719      41.813
  H      -84.917     310.311      43.422
  H      -83.690     319.101      39.645
  H      -86.427     311.061      43.116
  H      -84.432     317.488      39.693
  P      -79.200     317.841      40.346
  C      -77.651     316.437      38.811
  O      -78.780     316.458      39.658
  O      -78.105     317.976      41.514
  O      -79.174     319.064      39.486
  H      -77.357     318.510      41.190
  H      -77.512     315.415      38.435
  H      -76.752     316.730      39.357
  H      -77.800     317.104      37.953
  H      -88.444     320.211      43.045
  H      -87.284     318.911      42.911
  H      -88.646     318.981      41.820

 3  4  5  6  7  8  9  10  11  12  13  23  27  28  29  30  32 0
 6-311+G(2d,p)
 ****
 34  35 0
 6-311+G(2d,p)
 ****
 1  2  14  15  16  17  18  19  20  21  22  24  25  26 0
 3-21G
 ****
 31  33  36  37  38  39  40  41  42  43  44  45  46 0
 3-21G
 ****


