%nproc=1
%NoSave
%Mem=1900MB
#P OB98/GEN NMR

erre ene a

0 1
  C       -2.061    -175.417     -14.381
  O       -2.223    -174.254     -13.589
  P       -3.600    -173.437     -13.636
  C       -2.691    -171.345     -14.888
  O       -3.531    -172.477     -14.918
  C       -3.488    -170.056     -15.136
  O       -3.953    -170.078     -16.508
  C       -4.736    -169.900     -14.274
  O       -5.131    -168.526     -14.293
  C       -5.746    -170.730     -15.036
  O       -7.088    -170.390     -14.701
  C       -5.346    -170.473     -16.511
  N       -5.536    -171.676     -17.342
  C       -6.791    -171.853     -17.919
  O       -7.692    -171.022     -17.824
  N       -7.000    -173.056     -18.537
  C       -6.107    -174.085     -18.583
  O       -6.410    -175.241     -18.858
  C       -4.734    -173.753     -18.173
  C       -4.518    -172.589     -17.555
  O       -3.459    -172.433     -12.398
  O       -4.829    -174.273     -13.536
  H       -7.195    -170.570     -13.737
  H       -3.910    -172.798     -11.615
  H       -7.954    -173.240     -18.828
  H       -3.960    -174.492     -18.332
  H       -3.524    -172.338     -17.193
  H       -5.940    -169.662     -16.952
  H       -5.600    -171.789     -14.788
  H       -4.617    -170.246     -13.243
  H       -2.824    -169.191     -15.018
  H       -1.903    -171.461     -15.639
  H       -2.186    -171.271     -13.918
  P       -5.561    -167.850     -12.902
  C       -8.067    -167.761     -13.459
  O       -7.070    -168.313     -12.623
  O       -5.305    -166.385     -12.782
  O       -4.726    -168.691     -11.821
  H       -4.672    -168.190     -10.985
  H       -8.891    -168.474     -13.546
  H       -7.676    -167.546     -14.459
  H       -8.443    -166.837     -13.011
  H       -1.085    -175.825     -14.220
  H       -2.176    -175.164     -15.414
  H       -2.800    -176.141     -14.107

 3  4  5  6  7  8  9  10  11  12  13  23  28  29  30  31  32 0
 6-311+G(2d,p)
 ****
 33  34 0
 6-311+G(2d,p)
 ****
 1  2  14  15  16  17  18  19  20  21  22  24  25  26  27 0
 3-21G
 ****
 35  36  37  38  39  40  41  42  43  44  45 0
 3-21G
 ****


