%nproc=1
%NoSave
%Mem=1900MB
#P OB98/GEN NMR

erre ene a

0 1
  C      788.700    -146.690    -273.527
  O      788.936    -147.438    -274.706
  P      788.798    -146.826    -276.173
  C      786.862    -145.881    -277.643
  O      787.230    -146.651    -276.500
  C      785.422    -146.134    -278.103
  O      785.331    -147.450    -278.686
  C      784.474    -146.142    -276.898
  O      783.977    -144.924    -276.378
  C      783.413    -147.187    -277.230
  O      782.219    -146.591    -277.751
  C      784.082    -148.048    -278.293
  N      782.216    -152.180    -276.005
  C      781.545    -151.083    -276.510
  N      780.223    -151.007    -276.204
  N      782.116    -150.157    -277.240
  C      783.453    -150.321    -277.380
  C      784.226    -151.370    -276.930
  C      783.583    -152.401    -276.161
  O      784.153    -153.352    -275.618
  N      785.562    -151.164    -277.192
  C      785.596    -149.986    -277.776
  N      784.351    -149.419    -277.861
  O      789.684    -147.395    -277.229
  O      789.263    -145.299    -275.930
  H      781.572    -147.318    -277.900
  H      789.725    -144.998    -276.737
  H      781.740    -152.823    -275.376
  H      786.497    -149.479    -278.098
  H      783.468    -148.109    -279.192
  H      783.122    -147.734    -276.324
  H      779.789    -151.621    -275.532
  H      785.040    -146.576    -276.054
  H      779.746    -150.137    -276.421
  H      785.131    -145.433    -278.888
  H      787.574    -146.116    -278.443
  H      786.985    -144.814    -277.412
  P      783.746    -144.575    -274.835
  C      782.145    -145.278    -272.968
  O      782.351    -145.187    -274.374
  O      783.459    -142.989    -274.834
  O      784.905    -144.886    -273.935
  H      783.658    -142.627    -273.945
  H      781.323    -145.973    -272.775
  H      781.874    -144.293    -272.581
  H      783.040    -145.639    -272.465
  H      788.855    -147.314    -272.672
  H      787.692    -146.331    -273.528
  H      789.374    -145.860    -273.490

 3  4  5  6  7  8  9  10  11  12  23  26  30  31 0
 6-311+G(2d,p)
 ****
 33  35  36  37  38 0
 6-311+G(2d,p)
 ****
 1  2  13  14  15  16  17  18  19  20  21  22  24  25 0
 3-21G
 ****
 27  28  29  32  34  39  40  41  42  43  44  45  46  47  48  49 0
 3-21G
 ****


