%nproc=1
%NoSave
%Mem=1900MB
#P OB98/GEN NMR

erre ene a

0 1
  C      123.586    -163.461     -63.533
  O      123.742    -162.513     -64.574
  P      124.942    -161.468     -64.634
  C      125.799    -159.470     -63.204
  O      124.790    -160.455     -63.388
  C      125.278    -158.208     -62.496
  O      124.458    -158.584     -61.372
  C      126.454    -157.406     -61.920
  O      127.180    -156.514     -62.745
  C      125.921    -156.795     -60.625
  O      125.503    -155.440     -60.786
  C      124.725    -157.690     -60.285
  N      122.717    -159.079     -55.837
  C      122.103    -158.499     -56.930
  N      120.835    -158.073     -56.729
  N      122.676    -158.348     -58.090
  C      123.977    -158.734     -58.102
  C      124.694    -159.334     -57.091
  C      124.025    -159.545     -55.827
  O      124.565    -159.972     -54.811
  N      126.003    -159.529     -57.446
  C      126.095    -159.010     -58.649
  N      124.898    -158.476     -59.075
  O      125.281    -160.905     -65.969
  O      126.186    -162.383     -64.163
  H      126.305    -154.891     -60.900
  H      126.980    -162.075     -64.646
  H      122.242    -159.105     -54.943
  H      127.002    -158.962     -59.238
  H      123.822    -157.087     -60.146
  H      126.699    -156.790     -59.851
  H      120.410    -158.048     -55.809
  H      127.202    -158.140     -61.598
  H      120.406    -157.494     -57.446
  H      124.630    -157.625     -63.159
  H      126.204    -159.222     -64.189
  H      126.620    -159.895     -62.616
  P      128.753    -156.231     -62.683
  C      130.535    -155.881     -60.873
  O      129.145    -155.860     -61.178
  O      128.935    -154.837     -63.456
  O      129.602    -157.290     -63.314
  H      129.851    -154.757     -63.780
  H      130.663    -155.923     -59.796
  H      131.009    -154.980     -61.263
  H      131.014    -156.767     -61.322
  H      122.710    -164.048     -63.713
  H      123.487    -162.951     -62.598
  H      124.443    -164.100     -63.502

 3  4  5  6  7  8  9  10  11  12  23  26  30  31 0
 6-311+G(2d,p)
 ****
 33  35  36  37  38 0
 6-311+G(2d,p)
 ****
 1  2  13  14  15  16  17  18  19  20  21  22  24  25 0
 3-21G
 ****
 27  28  29  32  34  39  40  41  42  43  44  45  46  47  48  49 0
 3-21G
 ****


