%nproc=1
%NoSave
%Mem=1900MB
#P OB98/GEN NMR

erre ene a

0 1
  C       91.119    -178.456     113.869
  O       90.267    -177.875     114.858
  P       89.425    -176.577     114.436
  C       90.762    -175.036     116.058
  O       90.317    -175.277     114.727
  C       91.785    -173.895     116.076
  O       91.247    -172.709     115.463
  C       92.186    -173.476     117.480
  O       93.118    -174.391     118.026
  C       92.760    -172.082     117.240
  O       94.170    -172.126     116.963
  C       91.971    -171.587     116.003
  N       91.082    -170.480     116.305
  C       91.653    -169.201     116.228
  O       92.840    -169.069     115.938
  N       90.863    -168.118     116.502
  C       89.624    -168.292     116.854
  N       88.889    -167.178     117.121
  C       88.996    -169.623     116.976
  C       89.775    -170.664     116.693
  O       88.283    -176.497     115.557
  O       88.846    -176.649     113.058
  H       94.464    -171.192     116.957
  H       87.460    -176.132     115.177
  H       87.962    -169.719     117.280
  H       89.400    -171.681     116.756
  H       92.669    -171.261     115.215
  H       92.631    -171.440     118.118
  H       91.299    -173.404     118.120
  H       92.669    -174.212     115.508
  H       89.354    -166.281     117.027
  H       91.213    -175.944     116.472
  H       87.919    -167.197     117.410
  H       89.895    -174.799     116.688
  P       92.596    -175.413     119.139
  C       92.562    -173.388     120.717
  O       91.841    -174.505     120.224
  O       93.948    -175.799     119.906
  O       91.859    -176.621     118.663
  H       93.773    -176.501     120.560
  H       91.878    -172.747     121.274
  H       92.988    -172.811     119.890
  H       93.360    -173.725     121.385
  H       91.617    -179.308     114.283
  H       91.846    -177.736     113.557
  H       90.533    -178.759     113.027

 3  4  5  6  7  8  9  10  11  12  13  21  23  27  28  29  30  32 0
 6-311+G(2d,p)
 ****
 34  35 0
 6-311+G(2d,p)
 ****
 1  2  14  15  16  17  18  19  20  22  24  25  26 0
 3-21G
 ****
 31  33  36  37  38  39  40  41  42  43  44  45  46 0
 3-21G
 ****


