%nproc=1
%NoSave
%Mem=1900MB
#P OB98/GEN NMR

erre ene a

0 1
  C       17.204     -93.083     -59.047
  O       16.308     -91.993     -58.919
  P       14.759     -92.143     -59.310
  C       12.637     -90.939     -58.489
  O       13.966     -91.338     -58.167
  C       12.010     -90.198     -57.307
  O       11.842     -91.139     -56.214
  C       12.837     -89.047     -56.731
  O       12.681     -87.809     -57.409
  C       12.227     -88.938     -55.334
  O       10.977     -88.230     -55.408
  C       11.985     -90.406     -54.970
  N       13.920     -90.988     -50.266
  C       12.788     -90.395     -50.713
  N       12.355     -90.262     -51.982
  C       13.201     -90.865     -52.835
  C       14.388     -91.522     -52.533
  C       14.741     -91.568     -51.172
  N       15.884     -92.201     -50.716
  N       14.988     -91.997     -53.680
  C       14.175     -91.652     -54.655
  N       13.076     -90.974     -54.198
  O       14.311     -93.546     -59.539
  O       14.581     -91.210     -60.594
  H       11.186     -87.309     -55.671
  H       13.751     -91.440     -61.059
  H       12.154     -89.956     -49.949
  H       14.337     -91.862     -55.698
  H       11.060     -90.547     -54.400
  H       12.864     -88.391     -54.630
  H       13.895     -89.324     -56.639
  H       11.012     -89.847     -57.609
  H       12.047     -91.842     -58.698
  H       15.989     -92.296     -49.722
  H       16.406     -92.772     -51.370
  H       12.646     -90.320     -59.388
  P       13.967     -86.837     -57.461
  C       15.046     -85.392     -59.366
  O       14.004     -86.257     -58.956
  O       15.231     -87.457     -56.981
  O       13.495     -85.576     -56.598
  H       12.770     -85.049     -56.988
  H       14.975     -85.250     -60.447
  H       16.021     -85.819     -59.134
  H       14.934     -84.424     -58.877
  H       18.182     -92.779     -58.737
  H       17.236     -93.400     -60.068
  H       16.871     -93.893     -58.432

 3  4  5  6  7  8  9  10  11  12  22  25  29  30  31  32 0
 6-311+G(2d,p)
 ****
 33  36  37 0
 6-311+G(2d,p)
 ****
 1  2  13  14  15  16  17  18  19  20  21  23  24  26 0
 3-21G
 ****
 27  28  34  35  38  39  40  41  42  43  44  45  46  47  48 0
 3-21G
 ****


