%nproc=1
%NoSave
%Mem=1900MB
#P OB98/GEN NMR

erre ene a

0 1
  C     -558.649    -132.287    -223.223
  O     -559.844    -132.995    -222.963
  H     -558.361    -132.449    -224.265
  H     -557.842    -132.651    -222.577
  H     -558.801    -131.218    -223.061
  P     -560.385    -132.976    -221.454
  C     -562.734    -133.621    -222.355
  O     -561.700    -133.891    -221.419
  C     -563.520    -134.900    -222.631
  O     -563.730    -135.625    -221.392
  C     -564.911    -134.667    -223.201
  O     -564.892    -134.379    -224.590
  C     -565.577    -135.997    -222.896
  O     -565.295    -136.977    -223.904
  C     -564.943    -136.385    -221.548
  N     -565.868    -136.176    -220.435
  C     -565.966    -137.229    -219.527
  O     -565.330    -138.277    -219.634
  N     -566.863    -137.052    -218.508
  C     -567.683    -135.977    -218.341
  O     -568.503    -135.909    -217.433
  C     -567.544    -134.906    -219.337
  C     -566.657    -135.053    -220.326
  O     -560.950    -131.487    -221.289
  O     -559.363    -133.306    -220.416
  H     -560.343    -130.965    -220.732
  H     -564.330    -137.135    -223.862
  H     -566.948    -137.805    -217.840
  H     -568.181    -134.037    -219.236
  H     -566.546    -134.278    -221.082
  H     -564.650    -137.445    -221.552
  H     -566.656    -135.889    -222.843
  H     -565.423    -133.874    -222.643
  H     -562.927    -135.538    -223.303
  H     -562.299    -133.264    -223.295
  H     -563.386    -132.841    -221.951
  P     -565.942    -133.296    -225.142
  C     -564.291    -132.860    -227.145
  O     -565.612    -133.126    -226.702
  O     -565.378    -131.965    -224.458
  O     -567.356    -133.629    -224.810
  H     -564.421    -132.025    -224.285
  H     -564.282    -132.782    -228.212
  H     -563.645    -133.657    -226.840
  H     -563.950    -131.941    -226.717

 6  7  8  9  10  11  12  13  14  15  16  27  31  32  33  34  35 0
 6-311+G(2d,p)
 ****
 36  37 0
 6-311+G(2d,p)
 ****
 1  2  3  4  5  17  18  19  20  21  22  23  24  25 0
 3-21G
 ****
 26  28  29  30  38  39  40  41  42  43  44  45 0
 3-21G
 ****


