%nproc=1
%NoSave
%Mem=1900MB
#P OB98/GEN NMR

erre ene a

0 1
  C     -242.530      -6.325     100.924
  O     -242.478      -6.338      99.510
  H     -243.441      -5.807     101.236
  H     -241.668      -5.791     101.334
  H     -242.556      -7.345     101.316
  P     -241.223      -7.043      98.804
  C     -238.674      -6.611      98.808
  O     -239.968      -6.079      99.071
  C     -237.646      -5.485      98.756
  O     -238.021      -4.511      97.761
  C     -237.493      -4.724     100.072
  O     -236.650      -5.440     100.962
  C     -236.872      -3.430      99.572
  O     -235.476      -3.640      99.279
  C     -237.659      -3.195      98.268
  N     -239.848       1.313      97.485
  C     -238.548       0.902      97.240
  N     -237.704       1.839      96.758
  N     -238.116      -0.313      97.467
  C     -239.054      -1.119      98.015
  C     -240.364      -0.823      98.319
  C     -240.849       0.507      98.009
  O     -241.996       0.908      98.195
  N     -240.994      -1.881      98.923
  C     -240.077      -2.828      98.954
  N     -238.875      -2.413      98.426
  O     -241.396      -7.423      97.364
  O     -240.917      -8.312      99.728
  H     -235.040      -3.834     100.132
  H     -241.381      -9.106      99.403
  H     -240.115       2.267      97.303
  H     -240.229      -3.828      99.340
  H     -237.053      -2.699      97.500
  H     -236.936      -2.615     100.293
  H     -237.905       2.830      96.837
  H     -238.464      -4.493     100.525
  H     -236.738       1.571      96.621
  H     -236.690      -5.920      98.436
  H     -238.721      -7.134      97.846
  H     -238.393      -7.330      99.585
  P     -237.093      -5.713     102.484
  C     -237.393      -4.190     104.552
  O     -236.854      -4.321     103.242
  O     -236.440      -6.894     103.124
  O     -238.687      -5.808     102.428
  H     -239.024      -6.722     102.245
  H     -237.161      -3.219     104.938
  H     -236.968      -4.937     105.189
  H     -238.455      -4.315     104.515

 6  7  8  9  10  11  12  13  14  15  26  29  33  34 0
 6-311+G(2d,p)
 ****
 36  38  39  40  41 0
 6-311+G(2d,p)
 ****
 1  2  3  4  5  16  17  18  19  20  21  22  23  24  25 0
 3-21G
 ****
 27  28  30  31  32  35  37  42  43  44  45  46  47 0
 3-21G
 ****
 48  49 0
 3-21G
 ****


