%nproc=1
%NoSave
%Mem=1900MB
#P OB98/GEN NMR

erre ene a

0 1
  C     -234.393       3.364      51.197
  O     -233.867       2.691      52.332
  P     -233.881       1.085      52.311
  C     -235.761      -0.703      52.277
  O     -235.420       0.665      52.477
  C     -236.661      -1.200      53.401
  O     -235.928      -1.219      54.641
  C     -237.881      -0.330      53.666
  O     -238.933      -0.597      52.752
  C     -238.255      -0.772      55.075
  O     -239.016      -1.991      55.016
  C     -236.880      -1.027      55.715
  N     -236.932       0.956      60.376
  C     -237.520      -0.199      59.898
  N     -238.196      -0.946      60.800
  N     -237.453      -0.587      58.653
  C     -236.712       0.238      57.875
  C     -236.083       1.410      58.232
  C     -236.207       1.855      59.604
  O     -235.764       2.905      60.069
  N     -235.414       1.961      57.168
  C     -235.604       1.106      56.182
  N     -236.412       0.061      56.553
  O     -233.239       0.699      53.727
  O     -233.142       0.458      51.178
  H     -239.867      -1.778      54.590
  H     -232.836      -0.189      53.676
  H     -237.001       1.198      61.349
  H     -235.182       1.207      55.191
  H     -236.884      -1.948      56.309
  H     -238.870      -0.036      55.604
  H     -238.171      -0.771      61.792
  H     -237.616       0.733      53.673
  H     -238.601      -1.818      60.475
  H     -236.964      -2.230      53.168
  H     -234.845      -1.304      52.260
  H     -236.263      -0.804      51.308
  P     -239.956       0.607      52.460
  C     -241.857       1.706      53.848
  O     -240.950       0.627      53.714
  O     -240.853       0.042      51.260
  O     -239.298       1.900      52.113
  H     -241.219       0.780      50.737
  H     -242.230       2.038      52.875
  H     -241.360       2.541      54.350
  H     -242.706       1.380      54.453
  H     -234.322       4.421      51.345
  H     -235.419       3.091      51.064
  H     -233.835       3.087      50.327

 3  4  5  6  7  8  9  10  11  12  23  26  30  31  33  0
 6-311+G(2d,p)
 ****
 35  36  37  38 0
 6-311+G(2d,p)
 ****
 1  2  13  14  15  16  17  18  19  20  21  22  24  25  27  28  29 0
 3-21G
 ****
 32  34  39  40  41  42  43  44  45  46  47  48  49 0
 3-21G
 ****


