%nproc=1
%NoSave
%Mem=1900MB
#P OB98/GEN NMR

erre ene a

0 1
  C      356.782    -113.742     333.615
  O      355.445    -113.355     333.383
  H      356.783    -114.692     334.151
  H      357.279    -112.988     334.233
  H      357.331    -113.867     332.678
  P      355.143    -112.270     332.248
  C      352.781    -113.311     332.162
  O      353.550    -112.113     332.119
  C      351.323    -113.032     332.524
  O      350.762    -112.088     331.589
  C      350.452    -114.289     332.460
  O      350.436    -115.056     333.653
  C      349.074    -113.704     332.166
  O      348.383    -113.363     333.379
  C      349.392    -112.442     331.356
  N      346.016    -112.378     327.516
  C      345.781    -112.322     328.878
  N      344.484    -112.280     329.254
  N      346.735    -112.324     329.772
  C      347.972    -112.468     329.248
  C      348.326    -112.555     327.921
  C      347.271    -112.476     326.934
  O      347.428    -112.505     325.717
  N      349.681    -112.737     327.768
  C      350.126    -112.847     329.004
  N      349.141    -112.612     329.937
  O      355.525    -113.036     330.891
  O      355.906    -110.986     332.363
  H      348.410    -114.141     333.971
  H      355.852    -112.392     330.236
  H      345.244    -112.342     326.875
  H      351.154    -113.050     329.280
  H      348.782    -111.591     331.686
  H      348.447    -114.429     331.639
  H      343.713    -112.364     328.613
  H      350.744    -114.918     331.613
  H      344.265    -112.430     330.240
  H      351.280    -112.566     333.518
  H      353.242    -113.947     332.922
  H      352.846    -113.838     331.208
  P      350.743    -116.624     333.626
  C      352.396    -116.432     335.657
  O      351.280    -117.057     335.066
  O      352.045    -116.721     332.702
  O      349.633    -117.488     333.123
  H      351.802    -116.972     331.790
  H      352.585    -116.871     336.615
  H      352.198    -115.387     335.776
  H      353.252    -116.564     335.029

 6  7  8  9  10  11  12  13  14  15  26  29  33  34 0
 6-311+G(2d,p)
 ****
 36  38  39  40  41 0
 6-311+G(2d,p)
 ****
 1  2  3  4  5  16  17  18  19  20  21  22  23  24  25 0
 3-21G
 ****
 27  28  30  31  32  35  37  42  43  44  45  46  47 0
 3-21G
 ****
 48  49 0
 3-21G
 ****


