%nproc=1
%NoSave
%Mem=1900MB
#P OB98/GEN NMR

erre ene a

0 1
  C       68.508      57.459    -105.176
  O       69.486      57.165    -106.176
  P       69.073      57.516    -107.687
  C       71.491      58.024    -108.473
  O       70.343      57.202    -108.620
  C       72.585      57.624    -109.469
  O       73.040      56.261    -109.214
  C       72.131      57.680    -110.937
  O       73.268      58.099    -111.703
  C       71.796      56.225    -111.220
  O       71.701      55.931    -112.604
  C       72.929      55.545    -110.463
  N       72.651      50.968    -112.696
  C       72.874      52.203    -113.194
  N       72.929      53.378    -112.531
  C       72.731      53.186    -111.216
  C       72.490      51.988    -110.563
  C       72.453      50.834    -111.363
  N       72.205      49.573    -110.871
  N       72.312      52.200    -109.203
  C       72.375      53.512    -109.066
  N       72.707      54.136    -110.234
  O       68.980      59.112    -107.688
  O       67.801      56.871    -108.124
  H       72.511      56.230    -113.063
  H       68.052      59.400    -107.609
  H       73.025      52.256    -114.269
  H       72.190      54.054    -108.150
  H       73.890      55.639    -110.985
  H       70.827      55.982    -110.765
  H       71.304      58.371    -111.115
  H       73.445      58.288    -109.320
  H       71.885      57.939    -107.457
  H       72.194      48.807    -111.525
  H       72.041      49.433    -109.885
  H       71.199      59.071    -108.604
  P       73.693      59.646    -111.673
  C       76.142      59.032    -111.227
  O       75.235      59.648    -112.119
  O       73.826      59.882    -110.093
  O       72.774      60.598    -112.359
  H       74.372      59.191    -109.678
  H       77.136      59.031    -111.684
  H       75.841      58.001    -111.030
  H       76.186      59.596    -110.290
  H       68.888      57.186    -104.214
  H       67.615      56.905    -105.377
  H       68.288      58.506    -105.189

 3  4  5  6  7  8  9  10  11  12  22  25  29  30  31  32 0
 6-311+G(2d,p)
 ****
 33  36  37 0
 6-311+G(2d,p)
 ****
 1  2  13  14  15  16  17  18  19  20  21  23  24  26 0
 3-21G
 ****
 27  28  34  35  38  39  40  41  42  43  44  45  46  47  48 0
 3-21G
 ****


