%nproc=1
%NoSave
%Mem=1900MB
#P OB98/GEN NMR

erre ene a

0 1
  C      258.930     -92.111    -370.097
  O      260.303     -92.071    -370.481
  P      261.485     -92.810    -369.704
  C      262.156     -90.567    -368.525
  O      261.848     -91.951    -368.409
  C      263.079     -90.057    -367.403
  O      262.398     -90.174    -366.126
  C      264.337     -90.921    -367.305
  O      265.435     -90.677    -368.163
  C      264.693     -90.921    -365.825
  O      265.644     -89.912    -365.493
  C      263.350     -90.633    -365.143
  N      264.105     -94.190    -361.544
  C      264.972     -93.224    -362.010
  N      266.219     -93.231    -361.492
  N      264.652     -92.340    -362.918
  C      263.405     -92.500    -363.418
  C      262.461     -93.431    -363.050
  C      262.804     -94.370    -362.001
  O      262.070     -95.238    -361.542
  N      261.315     -93.304    -363.788
  C      261.571     -92.314    -364.620
  N      262.829     -91.787    -364.429
  O      262.624     -93.270    -370.552
  O      260.766     -94.125    -369.100
  H      265.823     -89.967    -364.539
  H      261.442     -94.830    -369.089
  H      264.394     -94.831    -360.826
  H      260.886     -91.938    -365.373
  H      263.449     -89.830    -364.405
  H      265.140     -91.878    -365.537
  H      266.563     -93.955    -360.881
  H      264.032     -91.955    -367.533
  H      266.916     -92.669    -361.982
  H      263.295     -88.991    -367.530
  H      261.203     -90.030    -368.511
  H      262.609     -90.368    -369.495
  P      265.820     -91.513    -369.474
  C      268.137     -92.595    -369.270
  O      266.747     -92.737    -369.022
  O      266.850     -90.563    -370.249
  O      264.667     -91.881    -370.352
  H      266.948     -90.852    -371.176
  H      268.611     -93.574    -369.216
  H      268.578     -91.940    -368.512
  H      268.315     -92.167    -370.262
  H      258.350     -91.533    -370.786
  H      258.823     -91.705    -369.113
  H      258.587     -93.125    -370.104

 3  4  5  6  7  8  9  10  11  12  23  26  30  31 0
 6-311+G(2d,p)
 ****
 33  35  36  37  38 0
 6-311+G(2d,p)
 ****
 1  2  13  14  15  16  17  18  19  20  21  22  24  25 0
 3-21G
 ****
 27  28  29  32  34  39  40  41  42  43  44  45  46  47  48  49 0
 3-21G
 ****


