%nproc=1
%NoSave
%Mem=1900MB
#P OB98/GEN NMR

erre ene a

0 1
  C     -117.033     -19.440     132.546
  O     -116.879     -20.481     131.577
  P     -115.448     -20.618     130.861
  C     -114.363     -19.507     128.757
  O     -115.450     -19.545     129.666
  C     -114.186     -18.099     128.177
  O     -115.388     -17.713     127.444
  C     -113.908     -17.013     129.224
  O     -112.977     -16.094     128.633
  C     -115.263     -16.351     129.399
  O     -115.150     -15.036     129.924
  C     -115.802     -16.432     127.967
  N     -117.252     -16.269     127.896
  C     -117.729     -15.020     127.520
  O     -116.992     -14.055     127.326
  N     -119.088     -14.903     127.418
  C     -119.999     -15.872     127.729
  O     -121.211     -15.714     127.620
  C     -119.440     -17.136     128.231
  C     -118.113     -17.271     128.292
  O     -115.596     -22.030     130.128
  O     -114.307     -20.514     131.816
  H     -116.489     -22.194     129.777
  H     -114.459     -14.554     129.429
  H     -119.455     -14.013     127.114
  H     -120.133     -17.908     128.542
  H     -117.671     -18.180     128.678
  H     -115.339     -15.661     127.338
  H     -115.883     -16.946     130.077
  H     -113.494     -17.414     130.154
  H     -113.362     -18.134     127.452
  H     -114.541     -20.207     127.935
  H     -113.455     -19.843     129.268
  P     -111.835     -15.459     129.573
  C     -111.430     -13.103     130.647
  O     -112.250     -13.938     129.858
  O     -110.645     -15.311     128.507
  O     -111.453     -16.288     130.755
  H     -110.931     -14.911     127.671
  H     -111.759     -12.069     130.522
  H     -110.384     -13.174     130.340
  H     -111.525     -13.378     131.700
  H     -118.027     -19.464     132.940
  H     -116.856     -18.492     132.082
  H     -116.331     -19.585     133.340

 3  4  5  6  7  8  9  10  11  12  13  24  28  29  30  31  32 0
 6-311+G(2d,p)
 ****
 33  34 0
 6-311+G(2d,p)
 ****
 1  2  14  15  16  17  18  19  20  21  22  23  25  26  27 0
 3-21G
 ****
 35  36  37  38  39  40  41  42  43  44  45 0
 3-21G
 ****


