%nproc=1
%NoSave
%Mem=1900MB
#P OB98/GEN NMR

erre ene a

0 1
  C       59.585     -58.006      29.087
  O       58.926     -57.909      27.840
  P       59.354     -58.820      26.591
  C       60.685     -56.816      25.682
  O       60.725     -58.189      26.041
  C       62.030     -56.347      25.125
  O       63.052     -56.469      26.153
  C       62.518     -57.123      23.893
  O       63.226     -56.183      23.080
  C       63.476     -58.130      24.500
  O       64.378     -58.673      23.545
  C       64.113     -57.288      25.613
  N       64.744     -58.117      26.633
  C       65.977     -58.687      26.306
  O       66.446     -58.545      25.175
  N       66.624     -59.449      27.246
  C       66.039     -59.705      28.375
  N       66.731     -60.462      29.268
  C       64.685     -59.229      28.710
  C       64.106     -58.435      27.810
  O       58.296     -59.019      25.560
  O       59.849     -60.182      27.270
  H       64.976     -59.301      24.008
  H       59.073     -60.728      27.552
  H       64.216     -59.514      29.639
  H       63.115     -58.036      27.967
  H       64.871     -56.610      25.199
  H       62.909     -58.963      24.933
  H       61.712     -57.596      23.327
  H       61.941     -55.281      24.883
  H       67.664     -60.757      29.004
  H       60.457     -56.238      26.583
  H       66.404     -60.649      30.205
  H       59.882     -56.640      24.959
  P       63.178     -56.262      21.480
  C       65.137     -57.910      21.422
  O       63.786     -57.684      21.064
  O       63.776     -55.091      20.770
  O       61.619     -56.418      21.137
  H       61.473     -56.220      20.192
  H       65.351     -58.980      21.348
  H       65.331     -57.578      22.447
  H       65.793     -57.367      20.736
  H       59.146     -57.316      29.777
  H       60.622     -57.774      28.961
  H       59.485     -59.001      29.467

 3  4  5  6  7  8  9  10  11  12  13  23  27  28  29  30  32 0
 6-311+G(2d,p)
 ****
 34  35 0
 6-311+G(2d,p)
 ****
 1  2  14  15  16  17  18  19  20  21  22  24  25  26 0
 3-21G
 ****
 31  33  36  37  38  39  40  41  42  43  44  45  46 0
 3-21G
 ****


