%nproc=1
%NoSave
%Mem=1900MB
#P OB98/GEN NMR

erre ene a

0 1
  C     -106.002    -147.978      19.679
  O     -105.933    -149.396      19.496
  P     -104.583    -150.199      19.828
  C     -105.093    -150.208      22.339
  O     -104.786    -151.013      21.202
  C     -106.199    -150.803      23.223
  O     -107.441    -150.933      22.487
  C     -105.880    -152.183      23.814
  O     -106.516    -152.215      25.096
  C     -106.571    -153.119      22.840
  O     -106.785    -154.415      23.385
  C     -107.838    -152.317      22.516
  N     -108.452    -152.734      21.257
  C     -108.881    -154.060      21.169
  O     -108.684    -154.841      22.104
  N     -109.478    -154.490      20.007
  C     -109.550    -153.686      18.991
  N     -110.130    -154.171      17.858
  C     -109.033    -152.303      19.009
  C     -108.513    -151.894      20.166
  O     -103.337    -149.378      19.770
  O     -104.545    -151.360      18.721
  H     -107.209    -154.971      22.697
  H     -103.615    -151.584      18.520
  H     -109.089    -151.681      18.128
  H     -108.112    -150.895      20.284
  H     -108.583    -152.430      23.317
  H     -105.955    -153.233      21.936
  H     -104.810    -152.378      23.904
  H     -106.388    -150.088      24.033
  H     -110.448    -155.134      17.877
  H     -105.411    -149.220      21.987
  H     -110.133    -153.675      16.981
  H     -104.183    -150.063      22.929
  P     -105.697    -152.483      26.446
  C     -104.640    -150.382      27.458
  O     -105.821    -151.155      27.334
  O     -104.298    -152.972      26.243
  O     -106.578    -153.552      27.256
  H     -106.020    -153.971      27.943
  H     -104.893    -149.413      27.894
  H     -104.173    -150.220      26.480
  H     -103.929    -150.894      28.113
  H     -106.976    -147.630      19.406
  H     -105.268    -147.503      19.063
  H     -105.814    -147.741      20.705

 3  4  5  6  7  8  9  10  11  12  13  23  27  28  29  30  32 0
 6-311+G(2d,p)
 ****
 34  35 0
 6-311+G(2d,p)
 ****
 1  2  14  15  16  17  18  19  20  21  22  24  25  26 0
 3-21G
 ****
 31  33  36  37  38  39  40  41  42  43  44  45  46 0
 3-21G
 ****


