%nproc=1
%NoSave
%Mem=1900MB
#P OB98/GEN NMR

erre ene a

0 1
  C      226.199    -113.745     125.560
  O      226.372    -113.396     124.199
  H      225.514    -113.025     126.023
  H      227.159    -113.707     126.084
  H      225.770    -114.747     125.639
  P      227.395    -114.301     123.359
  C      225.682    -116.065     122.552
  O      226.801    -115.790     123.377
  C      225.961    -117.270     121.654
  O      226.931    -116.930     120.636
  C      226.507    -118.489     122.385
  O      225.453    -119.250     122.954
  C      227.214    -119.221     121.253
  O      226.278    -119.962     120.447
  C      227.820    -118.061     120.450
  N      232.710    -118.470     119.236
  C      231.595    -119.041     118.652
  N      231.814    -119.873     117.613
  N      230.368    -118.840     119.068
  C      230.304    -118.031     120.156
  C      231.333    -117.400     120.817
  C      232.675    -117.595     120.312
  O      233.697    -117.048     120.734
  N      230.864    -116.648     121.868
  C      229.558    -116.848     121.856
  N      229.173    -117.685     120.835
  O      228.679    -114.399     124.317
  O      227.770    -113.767     122.016
  H      225.969    -120.735     120.945
  H      229.483    -114.373     123.767
  H      233.624    -118.636     118.852
  H      228.854    -116.410     122.550
  H      227.852    -118.277     119.378
  H      227.935    -119.949     121.636
  H      232.715    -120.295     117.442
  H      227.242    -118.197     123.144
  H      231.003    -120.354     117.237
  H      225.026    -117.519     121.137
  H      225.473    -115.191     121.930
  H      224.809    -116.275     123.183
  P      225.776    -120.139     124.249
  C      224.761    -118.880     126.280
  O      225.926    -119.154     125.506
  O      227.277    -120.628     123.977
  O      224.861    -121.301     124.446
  H      227.278    -121.567     123.717
  H      225.012    -118.213     127.078
  H      224.379    -119.794     126.685
  H      224.018    -118.427     125.658

 6  7  8  9  10  11  12  13  14  15  26  29  33  34 0
 6-311+G(2d,p)
 ****
 36  38  39  40  41 0
 6-311+G(2d,p)
 ****
 1  2  3  4  5  16  17  18  19  20  21  22  23  24  25 0
 3-21G
 ****
 27  28  30  31  32  35  37  42  43  44  45  46  47 0
 3-21G
 ****
 48  49 0
 3-21G
 ****


