%nproc=1
%NoSave
%Mem=1900MB
#P OB98/GEN NMR

erre ene a

0 1
  C     1201.472    -381.031    -595.456
  O     1202.292    -381.137    -594.293
  P     1202.789    -382.610    -593.881
  C     1204.856    -381.350    -592.897
  O     1203.881    -382.391    -592.721
  C     1205.275    -380.787    -591.547
  O     1204.359    -379.762    -591.131
  C     1205.260    -381.813    -590.427
  O     1206.403    -382.644    -590.500
  C     1205.241    -380.901    -589.189
  O     1206.582    -380.505    -588.803
  C     1204.422    -379.702    -589.684
  N     1203.081    -379.645    -589.087
  C     1202.474    -378.380    -589.086
  O     1203.079    -377.395    -589.532
  N     1201.222    -378.269    -588.528
  C     1200.640    -379.292    -588.029
  N     1199.387    -379.140    -587.485
  C     1201.256    -380.655    -588.020
  C     1202.477    -380.754    -588.542
  O     1203.662    -383.071    -595.149
  O     1201.686    -383.573    -593.572
  H     1206.466    -379.890    -588.043
  H     1203.669    -384.045    -595.231
  H     1200.727    -381.486    -587.578
  H     1203.001    -381.678    -588.593
  H     1204.933    -378.761    -589.436
  H     1204.784    -381.402    -588.324
  H     1204.361    -382.414    -590.467
  H     1206.281    -380.333    -591.644
  H     1199.005    -378.207    -587.521
  H     1204.394    -380.546    -593.495
  H     1198.853    -379.894    -587.092
  H     1205.721    -381.758    -593.452
  P     1206.197    -384.215    -590.702
  C     1208.161    -384.476    -592.326
  O     1207.624    -384.798    -591.036
  O     1205.447    -384.264    -592.141
  O     1205.399    -384.919    -589.627
  H     1205.151    -385.184    -592.331
  H     1209.194    -384.830    -592.368
  H     1208.120    -383.411    -592.487
  H     1207.591    -385.023    -593.113
  H     1201.213    -380.005    -595.617
  H     1200.581    -381.607    -595.318
  H     1202.008    -381.401    -596.305

 3  4  5  6  7  8  9  10  11  12  13  21  23  27  28  29  30  32 0
 6-311+G(2d,p)
 ****
 34  35 0
 6-311+G(2d,p)
 ****
 1  2  14  15  16  17  18  19  20  22  24  25  26 0
 3-21G
 ****
 31  33  36  37  38  39  40  41  42  43  44  45  46 0
 3-21G
 ****


