%nproc=1
%NoSave
%Mem=1900MB
#P OB98/GEN NMR

erre ene a

0 1
  C      451.638    -478.041     233.839
  O      451.131    -476.793     234.318
  P      449.598    -476.764     234.763
  C      448.230    -475.664     236.688
  O      449.411    -475.644     235.902
  C      448.454    -474.887     237.995
  O      449.475    -475.511     238.817
  C      448.926    -473.456     237.775
  O      447.862    -472.631     237.343
  C      449.463    -473.122     239.154
  O      448.397    -472.785     240.057
  C      450.112    -474.460     239.587
  N      454.570    -476.058     241.553
  C      453.291    -476.145     241.985
  N      452.157    -475.697     241.418
  C      452.433    -475.086     240.243
  C      453.680    -474.914     239.667
  C      454.786    -475.416     240.369
  N      456.076    -475.301     239.921
  N      453.566    -474.242     238.460
  C      452.271    -474.004     238.331
  N      451.547    -474.508     239.380
  O      449.414    -478.141     235.557
  O      448.632    -476.649     233.609
  H      448.742    -472.920     240.975
  H      448.881    -478.766     235.023
  H      453.158    -476.664     242.941
  H      451.812    -473.465     237.508
  H      449.917    -474.684     240.643
  H      450.173    -472.275     239.155
  H      449.741    -473.427     237.032
  H      447.514    -474.892     238.557
  H      447.951    -476.696     236.920
  H      456.828    -475.618     240.527
  H      456.262    -474.762     239.086
  H      447.419    -475.227     236.100
  P      448.006    -471.910     235.917
  C      446.169    -472.183     234.128
  O      446.483    -471.716     235.429
  O      448.512    -473.120     234.989
  O      448.857    -470.685     235.908
  H      447.985    -473.933     235.150
  H      445.108    -472.002     233.935
  H      446.386    -473.250     234.054
  H      446.751    -471.624     233.379
  H      452.669    -477.929     233.575
  H      451.080    -478.346     232.978
  H      451.544    -478.782     234.605

 3  4  5  6  7  8  9  10  11  12  22  25  29  30  31  32 0
 6-311+G(2d,p)
 ****
 33  36  37 0
 6-311+G(2d,p)
 ****
 1  2  13  14  15  16  17  18  19  20  21  23  24  26 0
 3-21G
 ****
 27  28  34  35  38  39  40  41  42  43  44  45  46  47  48 0
 3-21G
 ****


