%nproc=1
%NoSave
%Mem=1900MB
#P OB98/GEN NMR

erre ene a

0 1
  C       84.113     137.272      10.206
  O       84.798     138.062      11.187
  P       84.657     139.660      11.247
  C       85.086     141.685       9.714
  O       85.028     140.264       9.808
  C       86.168     142.145       8.732
  O       87.479     142.012       9.317
  C       86.210     141.361       7.424
  O       85.188     141.797       6.548
  C       87.632     141.650       6.950
  O       87.697     142.935       6.308
  C       88.409     141.671       8.271
  N       92.160     138.484       6.884
  C       91.780     139.692       6.414
  N       90.766     140.478       6.833
  C       90.127     139.911       7.870
  C       90.398     138.684       8.456
  C       91.470     137.951       7.919
  N       91.845     136.715       8.392
  N       89.512     138.425       9.480
  C       88.730     139.487       9.524
  N       89.062     140.411       8.572
  O       85.384     140.298      12.384
  O       83.081     139.924      11.364
  H       87.143     143.547       6.827
  H       82.923     140.765      11.832
  H       92.369     140.078       5.585
  H       87.919     139.632      10.225
  H       89.181     142.449       8.275
  H       87.997     140.908       6.233
  H       86.106     140.290       7.625
  H       86.008     143.212       8.533
  H       85.300     142.088      10.711
  H       92.605     136.239       7.931
  H       91.307     136.290       9.133
  H       84.107     142.052       9.387
  P       83.816     140.979       6.445
  C       83.036     138.786       5.367
  O       84.147     139.592       5.712
  O       82.655     141.732       5.885
  O       83.534     140.520       7.954
  H       82.572     140.442       8.093
  H       82.694     138.239       6.249
  H       83.347     138.069       4.602
  H       82.217     139.394       4.972
  H       84.350     136.239      10.351
  H       84.420     137.574       9.227
  H       83.057     137.413      10.308

 3  4  5  6  7  8  9  10  11  12  22  25  29  30  31  32 0
 6-311+G(2d,p)
 ****
 33  36  37 0
 6-311+G(2d,p)
 ****
 1  2  13  14  15  16  17  18  19  20  21  23  24  26 0
 3-21G
 ****
 27  28  34  35  38  39  40  41  42  43  44  45  46  47  48 0
 3-21G
 ****


