%nproc=1
%NoSave
%Mem=1900MB
#P OB98/GEN NMR

erre ene a

0 1
  C     -529.737    1270.419    -764.776
  O     -529.825    1271.254    -763.639
  H     -529.323    1270.970    -765.632
  H     -529.092    1269.578    -764.546
  H     -530.741    1270.039    -765.033
  P     -530.649    1272.619    -763.813
  C     -528.645    1274.203    -763.394
  O     -529.907    1273.732    -762.942
  C     -527.957    1275.042    -762.327
  O     -528.809    1276.122    -761.908
  C     -527.629    1274.285    -761.032
  O     -526.449    1273.498    -761.176
  C     -527.417    1275.437    -760.070
  O     -526.091    1275.986    -760.238
  C     -528.469    1276.454    -760.535
  N     -531.616    1279.325    -757.654
  C     -530.468    1279.634    -758.339
  N     -529.680    1278.827    -759.063
  C     -530.174    1277.582    -759.081
  C     -531.322    1277.113    -758.437
  C     -532.049    1278.045    -757.693
  N     -533.202    1277.727    -756.999
  N     -531.526    1275.774    -758.696
  C     -530.532    1275.412    -759.468
  N     -529.683    1276.479    -759.735
  O     -532.002    1272.351    -762.997
  O     -530.944    1273.011    -765.231
  H     -525.467    1275.316    -759.894
  H     -532.743    1272.777    -763.458
  H     -530.172    1280.690    -758.258
  H     -530.363    1274.432    -759.877
  H     -528.056    1277.473    -760.555
  H     -527.503    1275.152    -759.015
  H     -528.498    1273.670    -760.701
  H     -527.046    1275.474    -762.744
  H     -528.783    1274.834    -764.292
  H     -533.780    1278.481    -756.640
  H     -533.533    1276.759    -757.035
  H     -528.023    1273.344    -763.660
  P     -526.604    1271.896    -761.042
  C     -524.738    1272.011    -759.259
  O     -525.216    1271.381    -760.454
  O     -526.549    1271.410    -762.582
  O     -527.841    1271.433    -760.358
  H     -527.018    1270.551    -762.661
  H     -523.804    1271.574    -758.975
  H     -525.451    1271.872    -758.473
  H     -524.603    1273.057    -759.437

 6  7  8  9  10  11  12  13  14  15  25  28  32  33  34  35 0
 6-311+G(2d,p)
 ****
 36  39  40 0
 6-311+G(2d,p)
 ****
 1  2  3  4  5  16  17  18  19  20  21  22  23  24 0
 3-21G
 ****
 26  27  29  30  31  37  38  41  42  43  44  45  46  47  48 0
 3-21G
 ****


