%nproc=1
%NoSave
%Mem=1900MB
#P OB98/GEN NMR

erre ene a

0 1
  C       81.636    -111.958     213.775
  O       80.651    -111.102     213.178
  P       80.518    -110.883     211.595
  C       79.313    -112.801     210.362
  O       79.168    -111.581     211.073
  C       78.086    -113.706     210.524
  O       78.034    -114.242     211.882
  C       76.740    -113.008     210.256
  O       75.911    -113.959     209.580
  C       76.239    -112.735     211.669
  O       74.850    -112.475     211.741
  C       76.687    -114.031     212.355
  N       76.648    -114.012     213.815
  C       75.499    -114.507     214.441
  O       74.527    -114.893     213.794
  N       75.464    -114.538     215.817
  C       76.476    -114.109     216.504
  N       76.378    -114.176     217.859
  C       77.694    -113.561     215.886
  C       77.713    -113.545     214.553
  O       81.732    -111.297     210.828
  O       80.239    -109.318     211.402
  H       80.681    -109.010     210.586
  H       74.382    -113.239     211.358
  H       78.519    -113.220     216.495
  H       78.589    -113.186     214.021
  H       76.081    -114.866     211.985
  H       76.765    -111.861     212.064
  H       76.828    -112.111     209.636
  H       78.207    -114.567     209.853
  H       75.527    -114.568     218.248
  H       80.191    -113.326     210.749
  H       77.107    -113.877     218.489
  H       79.487    -112.580     209.302
  P       75.729    -113.862     207.988
  C       77.102    -116.057     207.677
  O       75.921    -115.337     207.388
  O       77.096    -113.148     207.543
  O       74.558    -113.073     207.503
  H       76.956    -112.681     206.702
  H       76.834    -117.084     207.933
  H       77.659    -115.624     208.512
  H       77.739    -116.066     206.789
  H       81.526    -111.940     214.839
  H       82.614    -111.614     213.512
  H       81.502    -112.958     213.419

 3  4  5  6  7  8  9  10  11  12  13  24  27  28  29  30  32 0
 6-311+G(2d,p)
 ****
 34  35 0
 6-311+G(2d,p)
 ****
 1  2  14  15  16  17  18  19  20  21  22  23  25  26 0
 3-21G
 ****
 31  33  36  37  38  39  40  41  42  43  44  45  46 0
 3-21G
 ****


