%nproc=1
%NoSave
%Mem=1900MB
#P OB98/GEN NMR

erre ene a

0 1
  C       11.150      42.299     -57.406
  O       11.312      42.713     -56.065
  H       10.776      41.273     -57.414
  H       12.116      42.325     -57.917
  H       10.434      42.939     -57.928
  P       11.534      44.283     -55.813
  C        9.056      44.964     -56.176
  O       10.392      45.043     -56.648
  C        8.377      46.326     -56.279
  O        8.464      46.831     -57.629
  C        6.896      46.319     -55.917
  O        6.701      46.409     -54.512
  C        6.430      47.587     -56.614
  O        6.824      48.740     -55.839
  C        7.227      47.541     -57.924
  N        3.427      47.813     -61.271
  C        3.770      48.676     -60.248
  N        2.983      49.762     -60.090
  N        4.788      48.491     -59.449
  C        5.471      47.351     -59.709
  C        5.225      46.415     -60.688
  C        4.107      46.641     -61.574
  O        3.767      45.912     -62.502
  N        6.132      45.389     -60.644
  C        6.912      45.693     -59.626
  N        6.551      46.872     -59.023
  O       12.874      44.586     -56.638
  O       11.673      44.685     -54.385
  H        7.788      48.681     -55.711
  H       13.621      44.650     -56.012
  H        2.627      47.997     -61.850
  H        7.751      45.100     -59.291
  H        7.499      48.540     -58.280
  H        5.345      47.634     -56.722
  H        2.172      49.953     -60.655
  H        6.377      45.453     -56.345
  H        3.219      50.410     -59.348
  H        8.929      47.024     -55.635
  H        9.066      44.639     -55.131
  H        8.510      44.229     -56.776
  P        5.397      45.719     -53.882
  C        6.681      43.565     -53.227
  O        5.615      44.131     -53.976
  O        4.278      46.010     -54.989
  O        4.987      46.235     -52.546
  H        3.620      46.642     -54.639
  H        6.706      42.507     -53.385
  H        6.532      43.767     -52.187
  H        7.608      43.995     -53.545

 6  7  8  9  10  11  12  13  14  15  26  29  33  34 0
 6-311+G(2d,p)
 ****
 36  38  39  40  41 0
 6-311+G(2d,p)
 ****
 1  2  3  4  5  16  17  18  19  20  21  22  23  24  25 0
 3-21G
 ****
 27  28  30  31  32  35  37  42  43  44  45  46  47 0
 3-21G
 ****
 48  49 0
 3-21G
 ****


