%nproc=1
%NoSave
%Mem=1900MB
#P OB98/GEN NMR

erre ene a

0 1
  C      501.562    -493.374    -673.661
  O      502.839    -493.849    -674.077
  P      503.025    -494.217    -675.617
  C      505.400    -494.869    -674.814
  O      504.325    -495.156    -675.709
  C      506.334    -496.065    -674.701
  O      506.788    -496.444    -676.008
  C      507.591    -495.823    -673.870
  O      507.345    -495.934    -672.483
  C      508.487    -496.960    -674.358
  O      508.161    -498.169    -673.659
  C      508.107    -497.062    -675.860
  N      512.150    -497.673    -678.830
  C      511.475    -498.599    -678.072
  N      511.907    -499.882    -678.137
  N      510.454    -498.307    -677.321
  C      510.101    -497.000    -677.379
  C      510.701    -495.972    -678.078
  C      511.870    -496.299    -678.874
  O      512.558    -495.522    -679.515
  N      510.068    -494.773    -677.900
  C      509.048    -495.075    -677.122
  N      509.038    -496.407    -676.746
  O      503.520    -492.826    -676.286
  O      501.796    -494.738    -676.305
  H      508.555    -498.103    -672.770
  H      503.278    -492.811    -677.231
  H      512.936    -497.965    -679.407
  H      508.282    -494.373    -676.800
  H      507.998    -498.117    -676.161
  H      509.560    -496.763    -674.179
  H      512.611    -500.193    -678.803
  H      508.049    -494.872    -674.130
  H      511.391    -500.583    -677.623
  H      505.754    -496.909    -674.285
  H      504.997    -494.640    -673.810
  H      505.940    -493.984    -675.176
  P      508.366    -495.152    -671.515
  C      506.622    -495.460    -669.603
  O      507.969    -495.613    -670.023
  O      507.886    -493.630    -671.609
  O      509.816    -495.304    -671.884
  H      508.627    -493.027    -671.402
  H      505.928    -495.659    -670.428
  H      506.465    -494.451    -669.228
  H      506.416    -496.173    -668.800
  H      501.583    -493.168    -672.611
  H      500.821    -494.119    -673.864
  H      501.323    -492.478    -674.195

 3  4  5  6  7  8  9  10  11  12  23  26  30  31  33  0
 6-311+G(2d,p)
 ****
 35  36  37  38 0
 6-311+G(2d,p)
 ****
 1  2  13  14  15  16  17  18  19  20  21  22  24  25  27  28  29 0
 3-21G
 ****
 32  34  39  40  41  42  43  44  45  46  47  48  49 0
 3-21G
 ****


