%nproc=1
%NoSave
%Mem=1900MB
#P OB98/GEN NMR

erre ene a

0 1
  C     1562.187    -358.677    -891.440
  O     1562.078    -359.076    -892.790
  P     1563.020    -360.283    -893.280
  C     1565.166    -358.804    -893.160
  O     1564.295    -359.574    -893.980
  C     1566.537    -358.643    -893.800
  O     1567.167    -359.924    -893.980
  C     1566.482    -358.025    -895.210
  O     1566.396    -356.592    -895.160
  C     1567.842    -358.456    -895.750
  O     1568.869    -357.589    -895.230
  C     1567.995    -359.859    -895.170
  N     1569.477    -362.798    -899.080
  C     1570.104    -361.789    -898.430
  N     1569.634    -361.069    -897.390
  C     1568.379    -361.404    -897.080
  C     1567.602    -362.385    -897.700
  C     1568.215    -363.116    -898.740
  N     1567.593    -364.146    -899.390
  N     1566.365    -362.459    -897.100
  C     1566.382    -361.565    -896.170
  N     1567.580    -360.911    -896.090
  O     1562.222    -360.894    -894.540
  O     1563.323    -361.320    -892.250
  H     1569.691    -357.779    -895.730
  H     1562.501    -361.823    -894.690
  H     1571.098    -361.551    -898.770
  H     1565.562    -361.357    -895.470
  H     1569.021    -360.089    -894.860
  H     1567.900    -358.391    -896.850
  H     1565.693    -358.466    -895.820
  H     1567.170    -358.033    -893.130
  H     1565.294    -359.312    -892.190
  H     1568.146    -364.733    -900.000
  H     1566.736    -364.519    -898.990
  H     1564.709    -357.819    -892.960
  P     1565.357    -355.926    -896.190
  C     1567.256    -355.723    -897.960
  O     1566.282    -355.056    -897.190
  O     1564.641    -354.809    -895.290
  O     1564.383    -356.869    -896.810
  H     1563.743    -354.615    -895.650
  H     1567.560    -355.097    -898.800
  H     1566.877    -356.671    -898.360
  H     1568.140    -355.929    -897.330
  H     1561.509    -357.871    -891.250
  H     1563.188    -358.355    -891.243
  H     1561.946    -359.503    -890.803

 3  4  5  6  7  8  9  10  11  12  22  25  29  30  31  32 0
 6-311+G(2d,p)
 ****
 33  36  37 0
 6-311+G(2d,p)
 ****
 1  2  13  14  15  16  17  18  19  20  21  23  24  26 0
 3-21G
 ****
 27  28  34  35  38  39  40  41  42  43  44  45  46  47  48 0
 3-21G
 ****


