%nproc=1
%NoSave
%Mem=1900MB
#P OB98/GEN NMR

erre ene a

0 1
  C     1130.747    1730.345    -899.422
  O     1131.417    1730.140    -898.202
  P     1131.504    1731.367    -897.162
  C     1132.720    1729.694    -895.572
  O     1132.672    1730.995    -896.122
  C     1134.130    1729.146    -895.612
  O     1135.052    1730.065    -894.982
  C     1134.307    1727.832    -894.932
  O     1133.806    1726.737    -895.702
  C     1135.811    1727.774    -894.712
  O     1136.487    1727.231    -895.862
  C     1136.162    1729.273    -894.532
  N     1136.524    1729.614    -893.162
  C     1137.889    1729.463    -892.852
  O     1138.699    1729.067    -893.682
  N     1138.287    1729.722    -891.562
  C     1137.405    1730.105    -890.662
  N     1137.878    1730.373    -889.412
  C     1135.983    1730.248    -890.972
  C     1135.620    1729.992    -892.202
  O     1130.165    1731.207    -896.292
  O     1131.609    1732.738    -897.832
  H     1137.439    1727.239    -895.652
  H     1129.870    1732.059    -895.942
  H     1135.269    1730.563    -890.172
  H     1134.567    1730.047    -892.512
  H     1137.014    1729.536    -895.202
  H     1136.108    1727.165    -893.862
  H     1133.812    1727.831    -893.922
  H     1134.418    1729.062    -896.672
  H     1138.871    1730.226    -889.232
  H     1132.040    1729.020    -896.162
  H     1137.285    1730.707    -888.672
  H     1132.336    1729.744    -894.532
  P     1132.745    1725.747    -895.032
  C     1131.824    1725.491    -897.402
  O     1132.249    1724.823    -896.242
  O     1131.481    1726.700    -894.802
  O     1133.140    1725.026    -893.792
  H     1130.781    1726.242    -894.312
  H     1131.666    1724.764    -898.202
  H     1132.593    1726.190    -897.742
  H     1130.884    1726.003    -897.262
  H     1130.774    1729.445    -900.000
  H     1131.228    1731.132    -899.965
  H     1129.730    1730.614    -899.230

 3  4  5  6  7  8  9  10  11  12  13  21  23  27  28  29  30  32 0
 6-311+G(2d,p)
 ****
 34  35 0
 6-311+G(2d,p)
 ****
 1  2  14  15  16  17  18  19  20  22  24  25  26 0
 3-21G
 ****
 31  33  36  37  38  39  40  41  42  43  44  45  46 0
 3-21G
 ****


