%nproc=1
%NoSave
%Mem=1900MB
#P OB98/GEN NMR

erre ene a

0 1
  C     -111.349    -289.898      71.881
  O     -111.203    -291.260      72.231
  P     -111.598    -292.418      71.193
  C     -113.644    -292.908      69.703
  O     -113.089    -292.064      70.715
  C     -115.172    -292.889      69.764
  O     -115.660    -291.533      69.920
  C     -115.846    -293.426      68.501
  O     -115.803    -294.838      68.479
  C     -117.246    -292.837      68.644
  O     -118.061    -293.635      69.524
  C     -116.954    -291.455      69.288
  N     -117.018    -290.364      68.317
  C     -118.262    -289.753      68.170
  O     -119.240    -290.161      68.808
  N     -118.392    -288.731      67.261
  C     -117.358    -288.374      66.553
  N     -117.563    -287.358      65.662
  C     -116.039    -289.019      66.662
  C     -115.939    -290.000      67.553
  O     -111.395    -293.812      71.681
  O     -110.711    -292.070      69.905
  H     -117.506    -293.817      70.318
  H     -109.765    -292.297      70.043
  H     -115.219    -288.684      66.036
  H     -115.007    -290.522      67.694
  H     -117.674    -291.251      70.092
  H     -117.768    -292.773      67.688
  H     -115.365    -292.999      67.614
  H     -115.491    -293.464      70.640
  H     -118.486    -286.962      65.599
  H     -113.289    -293.930      69.869
  H     -116.840    -287.025      65.028
  H     -113.286    -292.578      68.714
  P     -115.585    -295.608      67.084
  C     -116.924    -296.053      64.945
  O     -116.880    -295.361      66.186
  O     -115.136    -297.032      67.205
  O     -114.458    -294.728      66.351
  H     -113.801    -295.323      65.960
  H     -117.963    -296.073      64.593
  H     -116.565    -297.084      65.060
  H     -116.305    -295.536      64.209
  H     -111.035    -289.284      72.699
  H     -112.375    -289.696      71.656
  H     -110.747    -289.684      71.023

 3  4  5  6  7  8  9  10  11  12  13  23  27  28  29  30  32 0
 6-311+G(2d,p)
 ****
 34  35 0
 6-311+G(2d,p)
 ****
 1  2  14  15  16  17  18  19  20  21  22  24  25  26 0
 3-21G
 ****
 31  33  36  37  38  39  40  41  42  43  44  45  46 0
 3-21G
 ****


