%nproc=1
%NoSave
%Mem=1900MB
#P OB98/GEN NMR

erre ene a

0 1
  C      -91.200     374.639      23.105
  O      -92.363     374.081      23.692
  P      -92.466     374.106      25.293
  C      -94.856     375.045      25.708
  O      -94.009     373.902      25.669
  C      -96.312     374.614      25.887
  O      -96.785     373.956      24.691
  C      -96.543     373.616      27.016
  O      -96.496     374.254      28.282
  C      -97.912     373.066      26.627
  O      -98.943     373.991      27.013
  C      -97.807     373.003      25.092
  N      -99.590     368.425      23.641
  C     -100.212     369.528      24.113
  N      -99.667     370.699      24.497
  C      -98.333     370.675      24.353
  C      -97.556     369.619      23.907
  C      -98.237     368.448      23.536
  N      -97.596     367.324      23.059
  N      -96.220     369.953      23.916
  C      -96.188     371.198      24.349
  N      -97.442     371.681      24.611
  O      -92.192     375.639      25.653
  O      -91.511     373.189      25.996
  H      -98.997     373.972      27.991
  H      -91.714     375.720      26.500
  H     -101.294     369.459      24.187
  H      -95.289     371.786      24.481
  H      -98.741     373.288      24.595
  H      -98.140     372.105      27.096
  H      -95.794     372.817      26.977
  H      -96.916     375.516      26.048
  H      -94.768     375.602      24.771
  H      -98.143     366.484      22.959
  H      -96.584     367.293      23.119
  H      -94.538     375.698      26.526
  P      -95.327     373.813      29.285
  C      -95.944     375.651      30.973
  O      -95.876     374.254      30.731
  O      -94.208     374.918      28.988
  O      -94.890     372.397      29.160
  H      -94.574     375.821      28.986
  H      -96.381     375.810      31.962
  H      -96.577     376.136      30.224
  H      -94.939     376.084      30.955
  H      -91.263     374.556      22.040
  H      -90.337     374.112      23.453
  H      -91.122     375.671      23.378

 3  4  5  6  7  8  9  10  11  12  22  25  29  30  31  32 0
 6-311+G(2d,p)
 ****
 33  36  37 0
 6-311+G(2d,p)
 ****
 1  2  13  14  15  16  17  18  19  20  21  23  24  26 0
 3-21G
 ****
 27  28  34  35  38  39  40  41  42  43  44  45  46  47  48 0
 3-21G
 ****


