%nproc=1
%NoSave
%Mem=1900MB
#P OB98/GEN NMR

erre ene a

0 1
  C      -83.837    -704.115     157.266
  O      -84.150    -704.349     158.629
  H      -84.354    -703.212     156.938
  H      -84.181    -704.958     156.660
  H      -82.761    -703.977     157.139
  P      -83.418    -705.588     159.335
  C      -80.893    -706.102     159.634
  O      -81.909    -705.112     159.642
  C      -79.507    -705.452     159.625
  O      -79.291    -704.839     158.316
  C      -79.315    -704.359     160.689
  O      -77.952    -704.414     161.134
  C      -79.496    -703.072     159.893
  O      -78.899    -701.949     160.526
  C      -78.854    -703.481     158.564
  N      -78.714    -698.685     157.034
  C      -78.193    -699.284     158.170
  N      -77.531    -698.483     159.029
  N      -78.307    -700.558     158.436
  C      -78.966    -701.248     157.475
  C      -79.533    -700.778     156.307
  C      -79.416    -699.360     156.042
  O      -79.875    -698.766     155.065
  N      -80.139    -701.791     155.606
  C      -79.929    -702.873     156.342
  N      -79.229    -702.595     157.480
  O      -83.250    -706.633     158.132
  O      -84.145    -706.182     160.498
  H      -78.895    -701.206     159.887
  H      -84.002    -707.255     158.123
  H      -78.604    -697.698     156.888
  H      -80.279    -703.872     156.099
  H      -77.756    -703.478     158.620
  H      -80.569    -702.862     159.760
  H      -77.357    -697.505     158.869
  H      -79.987    -704.439     161.544
  H      -77.101    -698.906     159.852
  H      -78.754    -706.238     159.727
  H      -81.005    -706.726     158.739
  H      -80.999    -706.731     160.526
  P      -77.632    -705.205     162.493
  C      -78.364    -707.615     163.147
  O      -77.728    -706.778     162.189
  O      -78.942    -704.930     163.378
  O      -76.389    -704.749     163.192
  H      -78.717    -704.965     164.323
  H      -78.348    -708.628     162.802
  H      -79.378    -707.299     163.279
  H      -77.845    -707.548     164.080

 6  7  8  9  10  11  12  13  14  15  26  29  33  34 0
 6-311+G(2d,p)
 ****
 36  38  39  40  41 0
 6-311+G(2d,p)
 ****
 1  2  3  4  5  16  17  18  19  20  21  22  23  24  25 0
 3-21G
 ****
 27  28  30  31  32  35  37  42  43  44  45  46  47 0
 3-21G
 ****
 48  49 0
 3-21G
 ****


