%nproc=1
%NoSave
%Mem=1900MB
#P OB98/GEN NMR

erre ene a

0 1
  C     -174.582     191.150      66.602
  O     -174.916     190.293      67.682
  P     -174.881     188.710      67.392
  C     -176.471     187.054      66.145
  O     -176.270     188.354      66.679
  C     -177.961     186.836      65.871
  O     -178.677     186.650      67.110
  C     -178.642     187.996      65.158
  O     -178.401     187.932      63.762
  C     -180.100     187.774      65.542
  O     -180.705     186.767      64.707
  C     -179.978     187.288      66.994
  N     -182.399     188.722      71.196
  C     -182.642     187.654      70.348
  N     -183.652     186.826      70.701
  N     -181.958     187.422      69.259
  C     -180.991     188.337      69.026
  C     -180.662     189.443      69.780
  C     -181.392     189.662      71.009
  O     -181.151     190.530      71.843
  N     -179.638     190.153      69.212
  C     -179.326     189.460      68.134
  N     -180.101     188.339      67.989
  O     -175.015     188.074      68.851
  O     -173.669     188.225      66.659
  H     -180.183     185.947      64.762
  H     -174.138     187.812      69.196
  H     -182.946     188.843      72.030
  H     -178.534     189.715      67.445
  H     -180.732     186.529      67.239
  H     -180.702     188.683      65.421
  H     -184.235     186.958      71.511
  H     -178.293     188.953      65.565
  H     -183.845     186.043      70.088
  H     -178.063     185.912      65.285
  H     -176.124     186.311      66.868
  H     -175.888     186.950      65.223
  P     -178.184     189.313      62.980
  C     -179.757     191.270      62.304
  O     -179.639     189.900      62.646
  O     -177.620     188.849      61.557
  O     -177.251     190.265      63.654
  H     -176.962     189.500      61.237
  H     -180.608     191.388      61.633
  H     -178.857     191.643      61.811
  H     -179.934     191.850      63.213
  H     -174.643     192.169      66.923
  H     -175.265     190.989      65.795
  H     -173.586     190.938      66.274

 3  4  5  6  7  8  9  10  11  12  23  26  30  31 0
 6-311+G(2d,p)
 ****
 33  35  36  37  38 0
 6-311+G(2d,p)
 ****
 1  2  13  14  15  16  17  18  19  20  21  22  24  25 0
 3-21G
 ****
 27  28  29  32  34  39  40  41  42  43  44  45  46  47  48  49 0
 3-21G
 ****


