%nproc=1
%NoSave
%Mem=1900MB
#P OB98/GEN NMR

erre ene a

0 1
  C      274.728    -127.563    -105.740
  O      274.220    -127.899    -104.456
  P      275.113    -127.510    -103.178
  C      277.396    -128.366    -102.282
  O      276.258    -128.630    -103.095
  C      278.640    -129.022    -102.872
  O      278.784    -128.657    -104.259
  C      279.945    -128.615    -102.204
  O      280.190    -129.347    -101.015
  C      280.950    -129.000    -103.277
  O      281.189    -130.419    -103.238
  C      280.204    -128.625    -104.562
  N      283.715    -125.961    -107.154
  C      283.681    -127.248    -106.747
  N      282.715    -127.881    -106.052
  C      281.720    -127.032    -105.740
  C      281.636    -125.685    -106.054
  C      282.690    -125.146    -106.805
  N      282.710    -123.842    -107.244
  N      280.468    -125.146    -105.563
  C      279.851    -126.148    -104.973
  N      280.564    -127.313    -105.062
  O      274.156    -127.868    -101.947
  O      275.575    -126.093    -103.139
  H      282.025    -130.578    -103.715
  H      274.419    -127.355    -101.159
  H      284.540    -127.853    -107.027
  H      278.891    -126.081    -104.480
  H      280.378    -129.344    -105.372
  H      281.920    -128.510    -103.148
  H      279.986    -127.532    -102.035
  H      278.504    -130.109    -102.821
  H      277.220    -128.770    -101.280
  H      283.403    -123.584    -107.927
  H      281.859    -123.298    -107.157
  H      277.534    -127.283    -102.203
  P      281.405    -128.843    -100.092
  C      283.977    -129.163    -100.282
  O      282.688    -129.651    -100.606
  O      281.076    -129.500     -98.671
  O      281.539    -127.360    -100.017
  H      281.480    -128.978     -97.953
  H      284.703    -129.966    -100.428
  H      284.024    -128.834     -99.240
  H      284.234    -128.331    -100.944
  H      274.035    -127.879    -106.492
  H      275.667    -128.054    -105.892
  H      274.865    -126.504    -105.803

 3  4  5  6  7  8  9  10  11  12  22  25  29  30  31  32 0
 6-311+G(2d,p)
 ****
 33  36  37 0
 6-311+G(2d,p)
 ****
 1  2  13  14  15  16  17  18  19  20  21  23  24  26 0
 3-21G
 ****
 27  28  34  35  38  39  40  41  42  43  44  45  46  47  48 0
 3-21G
 ****


