%nproc=1
%NoSave
%Mem=1900MB
#P OB98/GEN NMR

erre ene a

0 1
  C      521.609    -899.140      53.198
  O      522.003    -899.130      54.559
  H      522.069    -900.000      52.702
  H      521.970    -898.230      52.700
  H      520.529    -899.210      53.113
  P      521.279    -898.090      55.527
  C      523.004    -896.150      55.250
  O      521.682    -896.630      55.001
  C      523.152    -894.720      54.742
  O      522.629    -893.810      55.748
  C      524.608    -894.290      54.465
  O      524.614    -893.430      53.317
  C      524.985    -893.520      55.694
  O      526.051    -892.600      55.492
  C      523.652    -892.820      56.030
  N      523.586    -892.340      57.397
  C      523.008    -891.100      57.618
  O      522.448    -890.430      56.759
  N      523.066    -890.650      58.917
  C      523.647    -891.270      59.976
  O      523.681    -890.800      61.101
  C      524.255    -892.580      59.688
  C      524.209    -893.050      58.414
  O      522.103    -898.230      56.891
  O      519.816    -898.290      55.720
  H      521.717    -898.920      57.465
  H      526.177    -892.070      56.308
  H      522.641    -889.750      59.098
  H      524.747    -893.100      60.489
  H      524.665    -894.000      58.170
  H      523.484    -891.970      55.333
  H      525.266    -894.190      56.494
  H      525.284    -895.130      54.295
  H      522.536    -894.580      53.865
  H      523.711    -896.800      54.722
  H      523.211    -896.200      56.324
  P      525.036    -894.050      51.912
  C      527.609    -894.090      52.441
  O      526.423    -894.820      52.181
  O      525.460    -892.740      51.104
  O      523.954    -894.870      51.294
  H      525.879    -892.060      51.661
  H      528.421    -894.771      52.593
  H      527.475    -893.493      53.318
  H      527.827    -893.456      51.607

 6  7  8  9  10  11  12  13  14  15  16  27  31  32  33  34  35 0
 6-311+G(2d,p)
 ****
 36  37 0
 6-311+G(2d,p)
 ****
 1  2  3  4  5  17  18  19  20  21  22  23  24  25 0
 3-21G
 ****
 26  28  29  30  38  39  40  41  42  43  44  45 0
 3-21G
 ****


