%nproc=1
%NoSave
%Mem=1900MB
#P OB98/GEN NMR

erre ene a

0 1
  C      228.645      35.309     190.395
  O      229.483      36.459     190.501
  P      230.127      36.804     191.928
  C      231.897      34.933     192.084
  O      231.659      36.329     191.926
  C      233.388      34.665     192.345
  O      233.555      33.268     192.717
  C      234.306      34.884     191.136
  O      234.850      36.184     190.930
  C      235.479      33.970     191.483
  O      236.379      34.652     192.376
  C      234.823      32.800     192.212
  N      237.039      29.654     188.840
  C      237.510      30.718     189.527
  N      236.852      31.502     190.404
  C      235.585      31.089     190.561
  C      234.968      30.022     189.929
  C      235.749      29.282     189.027
  N      235.270      28.207     188.319
  N      233.654      29.911     190.334
  C      233.479      30.907     191.180
  N      234.619      31.639     191.361
  O      229.329      36.398     193.121
  O      230.271      38.401     191.862
  H      237.026      33.988     192.680
  H      230.077      38.774     192.745
  H      238.550      30.973     189.345
  H      232.548      31.133     191.682
  H      235.412      32.463     193.072
  H      236.064      33.690     190.601
  H      233.826      34.537     190.214
  H      233.724      35.283     193.187
  H      231.580      34.404     191.182
  H      235.883      27.759     187.658
  H      234.295      27.954     188.403
  H      231.261      34.581     192.896
  P      234.023      37.326     190.171
  C      233.426      38.819     192.234
  O      234.192      38.647     191.064
  O      232.612      36.976     189.847
  O      234.939      37.633     188.899
  H      235.787      38.059     189.106
  H      233.838      39.661     192.802
  H      233.458      37.923     192.857
  H      232.391      39.050     191.967
  H      228.295      35.214     189.388
  H      227.809      35.415     191.055
  H      229.202      34.436     190.663

 3  4  5  6  7  8  9  10  11  12  22  25  29  30  31  32 0
 6-311+G(2d,p)
 ****
 33  36  37 0
 6-311+G(2d,p)
 ****
 1  2  13  14  15  16  17  18  19  20  21  23  24  26 0
 3-21G
 ****
 27  28  34  35  38  39  40  41  42  43  44  45  46  47  48 0
 3-21G
 ****


