%nproc=1
%NoSave
%Mem=1900MB
#P OB98/GEN NMR

erre ene a

0 1
  C     -459.661     358.420     806.142
  O     -460.048     359.161     807.305
  P     -461.266     358.650     808.231
  C     -462.652     360.802     808.078
  O     -462.619     359.403     807.799
  C     -463.997     361.277     808.652
  O     -463.928     362.675     809.036
  C     -465.193     361.133     807.700
  O     -466.326     360.843     808.534
  C     -465.297     362.520     807.087
  O     -466.568     362.760     806.494
  C     -464.953     363.397     808.301
  N     -464.494     364.737     807.908
  C     -465.361     365.797     808.173
  O     -466.469     365.578     808.680
  N     -464.968     367.067     807.852
  C     -463.860     367.248     807.204
  N     -463.531     368.531     806.899
  C     -462.942     366.158     806.819
  C     -463.320     364.942     807.206
  O     -460.990     358.674     809.695
  O     -461.511     357.140     807.741
  H     -467.223     362.915     807.200
  H     -461.844     356.611     808.482
  H     -462.051     366.355     806.263
  H     -462.722     364.058     806.979
  H     -465.816     363.508     808.961
  H     -464.536     362.630     806.300
  H     -465.053     360.358     806.932
  H     -464.193     360.702     809.584
  H     -464.192     369.266     807.154
  H     -462.429     361.351     807.157
  H     -462.754     368.778     806.290
  H     -461.842     361.040     808.784
  P     -466.960     359.380     808.642
  C     -468.657     359.697     806.747
  O     -467.516     358.988     807.185
  O     -467.925     359.195     809.757
  O     -465.689     358.396     808.822
  H     -465.981     357.544     809.190
  H     -468.821     359.522     805.688
  H     -468.530     360.784     806.893
  H     -469.532     359.348     807.323
  H     -458.841     358.912     805.662
  H     -460.488     358.361     805.465
  H     -459.365     357.433     806.430

 3  4  5  6  7  8  9  10  11  12  13  23  27  28  29  30  32 0
 6-311+G(2d,p)
 ****
 34  35 0
 6-311+G(2d,p)
 ****
 1  2  14  15  16  17  18  19  20  21  22  24  25  26 0
 3-21G
 ****
 31  33  36  37  38  39  40  41  42  43  44  45  46 0
 3-21G
 ****


