%nproc=1
%NoSave
%Mem=1900MB
#P OB98/GEN NMR

erre ene a

0 1
  C      229.363      85.265     245.271
  O      230.049      85.973     244.254
  P      229.308      87.098     243.395
  C      229.711      89.276     244.804
  O      230.024      88.496     243.671
  C      230.668      90.476     244.863
  O      231.995      90.037     245.213
  C      230.748      91.194     243.517
  O      229.842      92.286     243.479
  C      232.204      91.613     243.455
  O      232.416      92.821     244.211
  C      232.904      90.419     244.146
  N      233.192      89.219     243.338
  C      234.068      89.309     242.258
  O      234.660      90.337     241.946
  N      234.230      88.160     241.528
  C      233.645      86.954     241.794
  O      233.605      86.016     241.008
  C      232.960      86.859     243.085
  C      232.750      87.978     243.774
  O      227.899      87.252     244.136
  O      229.147      86.794     241.941
  H      232.164      92.631     245.135
  H      227.209      86.746     243.669
  H      234.753      88.255     240.662
  H      232.603      85.888     243.406
  H      232.206      87.937     244.718
  H      233.848      90.731     244.609
  H      232.506      91.839     242.432
  H      230.551      90.491     242.699
  H      230.321      91.166     245.644
  H      229.800      88.671     245.712
  H      228.674      89.622     244.748
  P      228.955      92.528     242.172
  C      226.795      92.219     243.519
  O      227.554      93.097     242.710
  O      228.860      91.371     241.229
  O      229.656      93.797     241.486
  H      230.259      93.499     240.773
  H      225.971      92.778     243.964
  H      227.418      91.802     244.319
  H      226.392      91.411     242.906
  H      230.028      84.561     245.726
  H      228.530      84.746     244.845
  H      229.013      85.954     246.011

 3  4  5  6  7  8  9  10  11  12  13  23  28  29  30  31  32 0
 6-311+G(2d,p)
 ****
 33  34 0
 6-311+G(2d,p)
 ****
 1  2  14  15  16  17  18  19  20  21  22  24  25  26  27 0
 3-21G
 ****
 35  36  37  38  39  40  41  42  43  44  45 0
 3-21G
 ****


