%nproc=1
%NoSave
%Mem=1900MB
#P OB98/GEN NMR

erre ene a

0 1
  C       79.238      89.047     -65.025
  O       78.421      89.872     -64.221
  P       76.906      89.474     -63.875
  C       75.861      87.515     -62.579
  O       76.963      87.955     -63.357
  C       75.647      86.006     -62.718
  O       75.081      85.714     -64.025
  C       76.921      85.163     -62.566
  O       76.521      83.939     -61.945
  C       77.326      84.923     -64.007
  O       78.213      83.820     -64.150
  C       75.952      84.760     -64.669
  N       76.014      84.956     -66.113
  C       76.451      83.872     -66.877
  O       76.838      82.839     -66.325
  N       76.497      83.998     -68.243
  C       76.228      85.144     -68.788
  N       76.284      85.209     -70.144
  C       75.884      86.349     -68.008
  C       75.781      86.182     -66.693
  O       75.918      89.731     -64.962
  O       76.601      90.287     -62.531
  H       77.699      82.993     -64.026
  H       76.427      91.239     -62.736
  H       75.724      87.295     -68.502
  H       75.533      87.007     -66.038
  H       75.544      83.759     -64.473
  H       77.834      85.812     -64.401
  H       77.704      85.655     -61.985
  H       74.906      85.701     -61.969
  H       76.509      84.355     -70.640
  H       74.966      88.031     -62.938
  H       76.013      86.026     -70.670
  H       76.008      87.792     -61.530
  P       77.578      83.005     -61.184
  C       79.062      83.283     -59.117
  O       78.386      83.944     -60.171
  O       78.431      82.160     -62.072
  O       76.680      82.102     -60.208
  H       77.206      81.341     -59.896
  H       79.788      83.970     -58.674
  H       79.588      82.397     -59.484
  H       78.341      82.984     -58.351
  H       80.204      89.495     -65.130
  H       78.790      88.934     -65.990
  H       79.339      88.087     -64.564

 3  4  5  6  7  8  9  10  11  12  13  23  27  28  29  30  32 0
 6-311+G(2d,p)
 ****
 34  35 0
 6-311+G(2d,p)
 ****
 1  2  14  15  16  17  18  19  20  21  22  24  25  26 0
 3-21G
 ****
 31  33  36  37  38  39  40  41  42  43  44  45  46 0
 3-21G
 ****


