%nproc=1
%NoSave
%Mem=1900MB
#P OB98/GEN NMR

erre ene a

0 1
  C      -85.957      48.931     -92.258
  O      -86.222      48.122     -91.127
  H      -86.387      49.922     -92.083
  H      -86.425      48.498     -93.145
  H      -84.880      49.040     -92.414
  P      -85.580      46.657     -91.054
  C      -85.800      44.463     -92.400
  O      -86.366      45.736     -92.114
  C      -86.866      43.513     -92.956
  O      -87.967      43.440     -92.005
  C      -87.446      43.955     -94.302
  O      -87.691      42.797     -95.110
  C      -88.761      44.605     -93.926
  O      -89.713      44.565     -94.991
  C      -89.177      43.798     -92.698
  N      -94.000      45.025     -91.813
  C      -93.458      44.153     -92.733
  N      -94.325      43.525     -93.555
  N      -92.177      43.920     -92.844
  C      -91.424      44.600     -91.942
  C      -91.844      45.490     -90.981
  C      -93.262      45.761     -90.888
  O      -93.799      46.540     -90.101
  N      -90.775      45.993     -90.275
  C      -89.723      45.402     -90.804
  N      -90.060      44.559     -91.829
  O      -85.481      46.078     -89.675
  O      -84.135      46.822     -91.720
  H      -90.515      45.035     -94.673
  H      -83.436      46.819     -91.045
  H      -94.990      45.182     -91.781
  H      -88.694      45.557     -90.490
  H      -89.710      42.877     -92.968
  H      -88.588      45.660     -93.668
  H      -95.330      43.641     -93.512
  H      -86.777      44.635     -94.837
  H      -93.960      42.854     -94.225
  H      -86.434      42.509     -93.020
  H      -85.386      44.051     -91.474
  H      -84.990      44.586     -93.128
  P      -87.435      42.874     -96.690
  C      -88.727      42.419     -98.868
  O      -88.810      42.558     -97.456
  O      -86.248      42.119     -97.186
  O      -87.251      44.453     -96.939
  H      -86.594      44.584     -97.650
  H      -89.699      42.211     -99.264
  H      -88.065      41.614     -99.109
  H      -88.355      43.327     -99.295

 6  7  8  9  10  11  12  13  14  15  26  29  33  34 0
 6-311+G(2d,p)
 ****
 36  38  39  40  41 0
 6-311+G(2d,p)
 ****
 1  2  3  4  5  16  17  18  19  20  21  22  23  24  25 0
 3-21G
 ****
 27  28  30  31  32  35  37  42  43  44  45  46  47 0
 3-21G
 ****
 48  49 0
 3-21G
 ****


