%nproc=1
%NoSave
%Mem=1900MB
#P OB98/GEN NMR

erre ene a

0 1
  C      -70.549    -153.594      91.394
  O      -69.851    -152.445      90.966
  H      -70.293    -154.424      90.725
  H      -71.628    -153.434      91.347
  H      -70.253    -153.864      92.411
  P      -70.184    -151.030      91.653
  C      -68.479    -151.331      93.551
  O      -68.811    -150.591      92.381
  C      -66.965    -151.470      93.718
  O      -66.391    -152.014      92.501
  C      -66.250    -150.145      94.015
  O      -65.331    -150.334      95.095
  C      -65.497    -149.844      92.725
  O      -64.370    -148.999      92.943
  C      -65.191    -151.261      92.226
  N      -64.838    -151.304      90.810
  C      -63.494    -151.067      90.493
  O      -62.686    -150.806      91.386
  N      -63.109    -151.099      89.179
  C      -63.996    -151.289      88.251
  N      -63.548    -151.299      86.965
  C      -65.431    -151.496      88.534
  C      -65.777    -151.496      89.822
  O      -71.387    -151.034      92.536
  O      -70.288    -150.004      90.432
  H      -64.684    -148.068      92.986
  H      -70.791    -149.203      90.718
  H      -66.133    -151.642      87.727
  H      -66.811    -151.649      90.126
  H      -64.369    -151.708      92.802
  H      -66.169    -149.338      92.020
  H      -66.929    -149.335      94.277
  H      -66.772    -152.212      94.502
  H      -62.558    -151.155      86.813
  H      -68.950    -152.320      93.487
  H      -64.150    -151.430      86.164
  H      -68.886    -150.796      94.420
  P      -65.867    -149.940      96.559
  C      -65.571    -152.335      97.503
  O      -65.220    -150.965      97.614
  O      -67.409    -150.368      96.506
  O      -65.703    -148.492      96.889
  H      -67.972    -149.585      96.356
  H      -65.069    -152.895      98.265
  H      -65.279    -152.701      96.541
  H      -66.629    -152.443      97.620

 6  7  8  9  10  11  12  13  14  15  16  26  30  31  32  33  35 0
 6-311+G(2d,p)
 ****
 37  38 0
 6-311+G(2d,p)
 ****
 1  2  3  4  5  17  18  19  20  21  22  23  24  25 0
 3-21G
 ****
 27  28  29  34  36  39  40  41  42  43  44  45  46 0
 3-21G
 ****


