%nproc=1
%NoSave
%Mem=1900MB
#P OB98/GEN NMR

erre ene a

0 1
  C     -412.258     -82.236     347.655
  O     -412.440     -81.490     348.843
  H     -412.017     -81.546     346.841
  H     -413.175     -82.774     347.400
  H     -411.429     -82.939     347.778
  P     -412.839     -82.319     350.158
  C     -410.722     -81.285     351.228
  O     -411.462     -82.469     350.966
  C     -410.072     -81.353     352.608
  O     -411.064     -81.187     353.634
  C     -409.366     -82.672     352.905
  O     -408.059     -82.670     352.354
  C     -409.329     -82.644     354.426
  O     -408.232     -81.820     354.866
  C     -410.664     -81.973     354.787
  N     -412.934     -84.619     358.555
  C     -411.766     -83.944     358.515
  N     -411.199     -83.311     357.464
  C     -411.973     -83.412     356.372
  C     -413.189     -84.070     356.266
  C     -413.675     -84.690     357.428
  N     -414.868     -85.379     357.468
  N     -413.692     -83.966     354.986
  C     -412.826     -83.209     354.348
  N     -411.748     -82.875     355.132
  O     -413.604     -83.577     349.920
  O     -413.615     -81.199     351.001
  H     -407.437     -82.137     354.401
  H     -413.160     -80.342     350.927
  H     -411.210     -83.909     359.445
  H     -412.938     -82.851     353.329
  H     -410.558     -81.282     355.632
  H     -409.179     -83.633     354.863
  H     -409.959     -83.533     352.577
  H     -409.373     -80.510     352.692
  H     -411.378     -80.408     351.172
  H     -415.045     -85.952     358.276
  H     -415.350     -85.541     356.594
  H     -409.958     -81.194     350.452
  P     -407.276     -84.042     352.081
  C     -408.939     -85.166     350.474
  O     -408.422     -85.127     351.800
  O     -406.281     -84.406     353.127
  O     -406.614     -83.839     350.640
  H     -405.908     -84.499     350.497
  H     -409.692     -85.923     350.407
  H     -408.148     -85.388     349.789
  H     -409.366     -84.216     350.230

 6  7  8  9  10  11  12  13  14  15  25  28  32  33  34  35 0
 6-311+G(2d,p)
 ****
 36  39  40 0
 6-311+G(2d,p)
 ****
 1  2  3  4  5  16  17  18  19  20  21  22  23  24 0
 3-21G
 ****
 26  27  29  30  31  37  38  41  42  43  44  45  46  47 0
 3-21G
 ****
 48 0
 3-21G
 ****


