%nproc=1
%NoSave
%Mem=1900MB
#P OB98/GEN NMR

erre ene a

0 1
  C     -260.841     347.923     429.148
  O     -260.730     348.604     430.403
  P     -259.844     349.931     430.532
  C     -258.014     349.036     432.084
  O     -258.306     349.521     430.772
  C     -256.690     348.260     432.163
  O     -256.416     347.845     433.525
  C     -256.614     347.006     431.283
  O     -255.247     346.894     430.864
  C     -256.977     345.902     432.263
  O     -256.573     344.619     431.814
  C     -256.277     346.409     433.539
  N     -256.839     345.823     434.753
  C     -256.473     344.507     435.045
  O     -255.748     343.878     434.281
  N     -256.962     343.923     436.191
  C     -257.831     344.559     436.918
  N     -258.294     343.916     438.019
  C     -258.324     345.916     436.598
  C     -257.778     346.476     435.520
  O     -260.372     350.950     431.499
  O     -259.831     350.536     429.043
  H     -255.633     344.670     431.545
  H     -259.753     351.506     429.088
  H     -259.063     346.394     437.211
  H     -258.063     347.481     435.193
  H     -255.210     346.174     433.505
  H     -258.062     345.882     432.418
  H     -257.298     347.029     430.426
  H     -255.885     348.959     431.879
  H     -257.961     342.979     438.196
  H     -258.833     348.374     432.399
  H     -259.052     344.267     438.582
  H     -257.993     349.875     432.787
  P     -254.684     347.690     429.601
  C     -254.547     345.704     427.986
  O     -255.205     346.921     428.291
  O     -253.219     347.948     429.631
  O     -255.512     349.067     429.573
  H     -255.043     349.718     429.018
  H     -255.108     345.180     427.219
  H     -254.465     345.057     428.873
  H     -253.539     345.927     427.598
  H     -261.471     347.065     429.262
  H     -259.870     347.612     428.824
  H     -261.265     348.583     428.420

 3  4  5  6  7  8  9  10  11  12  13  23  27  28  29  30  32 0
 6-311+G(2d,p)
 ****
 34  35 0
 6-311+G(2d,p)
 ****
 1  2  14  15  16  17  18  19  20  21  22  24  25  26 0
 3-21G
 ****
 31  33  36  37  38  39  40  41  42  43  44  45  46 0
 3-21G
 ****


