%nproc=1
%NoSave
%Mem=1900MB
#P OB98/GEN NMR

erre ene a

0 1
  C     -256.811     940.346     -21.842
  O     -256.598     941.459     -22.689
  H     -255.865     940.022     -21.395
  H     -257.496     940.640     -21.047
  H     -257.256     939.519     -22.410
  P     -255.529     941.258     -23.868
  C     -254.983     943.737     -23.334
  O     -255.083     942.733     -24.330
  C     -253.841     944.689     -23.656
  O     -252.569     944.014     -23.540
  C     -253.858     945.258     -25.073
  O     -254.793     946.322     -25.209
  C     -252.426     945.746     -25.202
  O     -252.284     947.034     -24.558
  C     -251.638     944.685     -24.430
  N     -247.172     942.835     -26.173
  C     -247.460     943.850     -25.314
  N     -248.664     944.296     -24.915
  C     -249.645     943.560     -25.458
  C     -249.514     942.497     -26.337
  C     -248.206     942.142     -26.706
  N     -247.920     941.115     -27.580
  N     -250.747     941.978     -26.681
  C     -251.616     942.712     -26.017
  N     -251.002     943.691     -25.272
  O     -256.415     940.738     -25.096
  O     -254.409     940.318     -23.562
  H     -252.893     947.645     -25.022
  H     -255.895     940.092     -25.614
  H     -246.591     944.377     -24.912
  H     -252.690     942.581     -26.043
  H     -250.866     945.135     -23.793
  H     -252.101     945.872     -26.244
  H     -254.044     944.458     -25.816
  H     -253.857     945.507     -22.920
  H     -254.795     943.276     -22.361
  H     -246.975     940.786     -27.645
  H     -248.705     940.594     -27.973
  H     -255.932     944.281     -23.284
  P     -255.886     946.204     -26.383
  C     -255.894     948.801     -26.548
  O     -256.667     947.609     -26.384
  O     -256.955     945.185     -25.779
  O     -255.359     945.742     -27.702
  H     -257.437     944.736     -26.502
  H     -256.542     949.652     -26.529
  H     -255.379     948.766     -27.485
  H     -255.182     948.877     -25.753

 6  7  8  9  10  11  12  13  14  15  25  28  32  33  34  35 0
 6-311+G(2d,p)
 ****
 36  39  40 0
 6-311+G(2d,p)
 ****
 1  2  3  4  5  16  17  18  19  20  21  22  23  24 0
 3-21G
 ****
 26  27  29  30  31  37  38  41  42  43  44  45  46  47  48 0
 3-21G
 ****


