%nproc=1
%NoSave
%Mem=1900MB
#P OB98/GEN NMR

erre ene a

0 1
  C      786.753     184.192     373.425
  O      786.302     184.878     372.271
  H      786.798     184.893     374.258
  H      787.755     183.785     373.252
  H      786.061     183.384     373.677
  P      786.226     184.022     370.916
  C      787.126     186.016     369.513
  O      786.070     185.084     369.718
  C      786.640     187.202     368.682
  O      786.173     186.756     367.392
  C      785.496     187.985     369.320
  O      785.991     188.931     370.252
  C      784.872     188.639     368.096
  O      785.624     189.806     367.691
  C      784.987     187.530     367.045
  N      780.218     187.131     365.428
  C      781.072     188.214     365.418
  N      780.579     189.376     364.932
  N      782.303     188.176     365.858
  C      782.647     186.965     366.366
  C      781.887     185.818     366.435
  C      780.546     185.865     365.892
  O      779.764     184.918     365.796
  N      782.592     184.788     367.005
  C      783.761     185.321     367.314
  N      783.840     186.646     366.951
  O      784.781     183.333     370.988
  O      787.298     183.003     370.740
  H      785.507     190.510     368.359
  H      784.844     182.430     370.622
  H      779.288     187.215     365.043
  H      784.585     184.798     367.787
  H      785.148     187.934     366.032
  H      783.858     188.983     368.297
  H      779.584     189.544     364.853
  H      784.767     187.312     369.783
  H      781.186     190.187     364.997
  H      787.507     187.856     368.505
  H      787.943     185.512     368.989
  H      787.492     186.365     370.487
  P      785.279     189.019     371.686
  C      784.303     191.428     371.610
  O      785.287     190.560     372.152
  O      786.347     188.327     372.662
  O      783.956     188.333     371.771
  H      786.033     187.435     372.911
  H      784.435     192.411     372.011
  H      783.329     191.067     371.866
  H      784.403     191.460     370.545

 6  7  8  9  10  11  12  13  14  15  26  29  33  34 0
 6-311+G(2d,p)
 ****
 36  38  39  40  41 0
 6-311+G(2d,p)
 ****
 1  2  3  4  5  16  17  18  19  20  21  22  23  24  25 0
 3-21G
 ****
 27  28  30  31  32  35  37  42  43  44  45  46  47 0
 3-21G
 ****
 48  49 0
 3-21G
 ****


