%nproc=1
%NoSave
%Mem=1900MB
#P OB98/GEN NMR

erre ene a

0 1
  C      197.844     434.481     178.193
  O      197.728     433.089     178.441
  P      196.419     432.476     179.151
  C      195.597     432.402     181.601
  O      196.691     432.637     180.724
  C      195.982     432.769     183.034
  O      196.096     434.206     183.151
  C      194.972     432.346     184.089
  O      195.077     430.954     184.357
  C      195.365     433.262     185.245
  O      196.522     432.748     185.933
  C      195.732     434.565     184.501
  N      194.658     435.562     184.531
  C      194.392     436.154     185.766
  O      195.027     435.854     186.767
  N      193.398     437.113     185.825
  C      192.732     437.426     184.759
  N      191.805     438.429     184.870
  C      192.947     436.784     183.447
  C      193.926     435.876     183.405
  O      196.060     431.097     178.728
  O      195.273     433.557     178.882
  H      196.564     433.203     186.796
  H      194.783     433.416     178.036
  H      192.354     437.080     182.590
  H      194.164     435.368     182.473
  H      196.631     435.010     184.951
  H      194.564     433.396     185.987
  H      193.946     432.580     183.762
  H      196.967     432.342     183.243
  H      191.817     438.966     185.741
  H      195.339     431.337     181.568
  H      191.467     438.927     184.056
  H      194.727     432.984     181.261
  P      193.867     430.263     185.147
  C      192.475     430.884     187.248
  O      193.595     431.177     186.438
  O      194.525     428.923     185.734
  O      192.667     429.977     184.303
  H      194.275     428.152     185.186
  H      192.570     431.425     188.199
  H      192.433     429.807     187.468
  H      191.555     431.193     186.760
  H      198.781     434.682     177.718
  H      197.793     435.014     179.119
  H      197.045     434.797     177.555

 3  4  5  6  7  8  9  10  11  12  13  23  27  28  29  30  32 0
 6-311+G(2d,p)
 ****
 34  35 0
 6-311+G(2d,p)
 ****
 1  2  14  15  16  17  18  19  20  21  22  24  25  26 0
 3-21G
 ****
 31  33  36  37  38  39  40  41  42  43  44  45  46 0
 3-21G
 ****


