%nproc=1
%NoSave
%Mem=1900MB
#P OB98/GEN NMR

erre ene a

0 1
  C     -559.586    -286.804     274.930
  O     -559.909    -285.898     273.899
  H     -560.505    -287.083     275.452
  H     -558.911    -286.319     275.642
  H     -559.116    -287.713     274.539
  P     -558.867    -285.681     272.707
  C     -556.422    -284.866     272.492
  O     -557.600    -284.880     273.294
  C     -555.760    -283.484     272.486
  O     -555.360    -283.128     273.826
  C     -554.499    -283.441     271.616
  O     -554.742    -283.162     270.251
  C     -553.700    -282.320     272.275
  O     -554.046    -281.040     271.728
  C     -554.125    -282.403     273.747
  N     -550.442    -281.810     277.246
  C     -551.105    -280.841     276.515
  N     -550.712    -279.566     276.718
  N     -552.055    -281.120     275.652
  C     -552.269    -282.438     275.485
  C     -551.655    -283.492     276.140
  C     -550.654    -283.181     277.147
  O     -550.057    -283.995     277.831
  N     -552.104    -284.705     275.673
  C     -552.924    -284.390     274.683
  N     -553.112    -283.024     274.591
  O     -559.574    -284.570     271.785
  O     -558.532    -286.904     271.906
  H     -553.841    -281.054     270.770
  H     -559.321    -284.708     270.854
  H     -549.736    -281.542     277.911
  H     -553.432    -285.093     274.041
  H     -554.314    -281.412     274.165
  H     -552.630    -282.457     272.110
  H     -549.931    -279.306     277.303
  H     -553.929    -284.368     271.714
  H     -551.036    -278.846     276.066
  H     -556.497    -282.731     272.159
  H     -556.730    -285.141     271.480
  H     -555.715    -285.627     272.838
  P     -554.056    -284.045     269.101
  C     -551.604    -284.800     268.520
  O     -552.472    -284.000     269.299
  O     -554.293    -283.174     267.775
  O     -554.587    -285.436     268.957
  H     -555.062    -283.508     267.281
  H     -550.591    -284.617     268.813
  H     -551.726    -284.556     267.485
  H     -551.838    -285.833     268.672

 6  7  8  9  10  11  12  13  14  15  26  29  33  34 0
 6-311+G(2d,p)
 ****
 36  38  39  40  41 0
 6-311+G(2d,p)
 ****
 1  2  3  4  5  16  17  18  19  20  21  22  23  24  25 0
 3-21G
 ****
 27  28  30  31  32  35  37  42  43  44  45  46  47 0
 3-21G
 ****
 48  49 0
 3-21G
 ****


