%nproc=1
%NoSave
%Mem=1900MB
#P OB98/GEN NMR

erre ene a

0 1
  C     -198.700    -786.979     510.643
  O     -199.557    -786.021     510.060
  P     -199.050    -784.716     509.296
  C     -198.481    -782.270     510.013
  O     -198.578    -783.635     510.386
  C     -197.962    -781.417     511.178
  O     -198.950    -781.440     512.250
  C     -196.666    -781.999     511.778
  O     -195.685    -781.020     512.110
  C     -197.169    -782.884     512.911
  O     -196.184    -783.179     513.895
  C     -198.392    -782.100     513.401
  N     -201.332    -782.697     517.508
  C     -200.590    -781.598     517.127
  N     -200.455    -780.612     518.041
  N     -199.981    -781.497     515.966
  C     -200.094    -782.614     515.199
  C     -200.805    -783.758     515.464
  C     -201.501    -783.837     516.735
  O     -202.081    -784.835     517.164
  N     -200.649    -784.699     514.483
  C     -199.806    -784.143     513.637
  N     -199.409    -782.887     514.047
  O     -199.884    -784.235     508.153
  O     -197.639    -785.230     508.691
  H     -195.916    -782.344     514.301
  H     -197.512    -784.776     507.828
  H     -201.707    -782.744     518.442
  H     -199.424    -784.611     512.732
  H     -198.099    -781.327     514.121
  H     -197.479    -783.835     512.466
  H     -200.784    -780.729     518.996
  H     -196.154    -782.631     511.039
  H     -199.719    -779.929     517.892
  H     -197.843    -780.370     510.856
  H     -199.485    -781.945     509.731
  H     -197.831    -782.153     509.141
  P     -194.088    -781.160     512.149
  C     -192.338    -782.188     513.710
  O     -193.697    -782.180     513.320
  O     -193.550    -779.760     512.704
  O     -193.453    -781.469     510.821
  H     -192.743    -779.514     512.221
  H     -192.133    -783.097     514.300
  H     -192.120    -781.316     514.332
  H     -191.681    -782.199     512.830
  H     -199.285    -787.754     511.092
  H     -198.096    -786.509     511.391
  H     -198.069    -787.400     509.888

 3  4  5  6  7  8  9  10  11  12  23  26  30  31 0
 6-311+G(2d,p)
 ****
 33  35  36  37  38 0
 6-311+G(2d,p)
 ****
 1  2  13  14  15  16  17  18  19  20  21  22  24  25 0
 3-21G
 ****
 27  28  29  32  34  39  40  41  42  43  44  45  46  47  48  49 0
 3-21G
 ****


