%nproc=1
%NoSave
%Mem=1900MB
#P OB98/GEN NMR

erre ene a

0 1
  C      683.319    -890.750     339.827
  O      683.483    -891.930     340.609
  P      683.152    -891.900     342.165
  C      682.476    -893.610     343.960
  O      682.498    -893.310     342.573
  C      681.428    -894.710     344.242
  O      680.093    -894.150     344.150
  C      681.453    -895.870     343.273
  O      682.518    -896.740     343.574
  C      680.048    -896.460     343.508
  O      680.048    -897.290     344.673
  C      679.217    -895.190     343.724
  N      674.829    -895.820     341.203
  C      675.356    -896.470     342.258
  N      676.557    -896.260     342.846
  C      677.242    -895.300     342.225
  C      676.845    -894.560     341.104
  C      675.557    -894.850     340.613
  N      674.984    -894.130     339.565
  N      677.840    -893.670     340.742
  C      678.797    -893.860     341.604
  N      678.470    -894.790     342.541
  O      682.402    -890.690     342.651
  O      684.608    -891.960     342.865
  H      680.535    -898.110     344.464
  H      684.745    -891.170     343.409
  H      674.725    -897.240     342.695
  H      679.755    -893.350     341.610
  H      678.482    -895.340     344.559
  H      679.729    -897.060     342.669
  H      681.519    -895.500     342.237
  H      681.564    -895.040     345.292
  H      682.252    -892.710     344.529
  H      673.987    -894.330     339.373
  H      675.384    -893.230     339.310
  H      683.472    -893.970     344.258
  P      683.013    -897.810     342.487
  C      685.146    -899.210     342.244
  O      684.595    -897.990     342.681
  O      682.591    -897.530     341.087
  O      682.430    -899.180     343.008
  H      682.223    -899.770     342.264
  H      684.924    -900.000     342.983
  H      686.231    -899.090     342.146
  H      684.726    -899.500     341.265
  H      683.586    -890.955     338.811
  H      683.950    -889.976     340.212
  H      682.298    -890.433     339.870

 3  4  5  6  7  8  9  10  11  12  22  25  29  30  31  32 0
 6-311+G(2d,p)
 ****
 33  36  37 0
 6-311+G(2d,p)
 ****
 1  2  13  14  15  16  17  18  19  20  21  23  24  26 0
 3-21G
 ****
 27  28  34  35  38  39  40  41  42  43  44  45  46  47  48 0
 3-21G
 ****


