%nproc=1
%NoSave
%Mem=1900MB
#P OB98/GEN NMR

erre ene a

0 1
  C     -527.236     763.380     256.880
  O     -525.871     763.746     256.619
  P     -524.687     762.788     257.143
  C     -523.592     762.198     254.843
  O     -524.314     761.749     255.979
  C     -524.536     762.370     253.653
  O     -525.460     763.458     253.892
  C     -523.841     762.719     252.346
  O     -523.225     761.591     251.755
  C     -525.004     763.274     251.527
  O     -525.759     762.208     250.922
  C     -525.840     763.991     252.604
  N     -525.693     765.441     252.561
  C     -526.866     766.179     252.524
  O     -527.983     765.675     252.470
  N     -526.711     767.542     252.512
  C     -525.528     768.217     252.470
  O     -525.456     769.438     252.443
  C     -524.320     767.379     252.426
  C     -524.458     766.052     252.466
  O     -525.462     761.849     258.191
  O     -523.542     763.480     257.805
  H     -526.275     762.612     250.196
  H     -524.840     761.546     258.875
  H     -527.553     768.098     252.520
  H     -523.359     767.873     252.367
  H     -523.574     765.418     252.439
  H     -526.902     763.745     252.483
  H     -524.671     763.929     250.716
  H     -523.112     763.521     252.511
  H     -525.123     761.448     253.543
  H     -522.827     761.459     254.588
  H     -523.096     763.144     255.085
  P     -521.619     761.547     251.787
  C     -521.285     758.961     251.610
  O     -521.246     760.119     252.416
  O     -521.311     762.602     252.952
  O     -520.992     761.874     250.472
  H     -521.994     762.599     253.641
  H     -521.005     759.178     250.579
  H     -522.293     758.536     251.636
  H     -520.582     758.227     252.020
  H     -527.889     764.120     256.467
  H     -527.392     763.317     257.937
  H     -527.443     762.431     256.431

 3  4  5  6  7  8  9  10  11  12  13  23  28  29  30  31  32 0
 6-311+G(2d,p)
 ****
 33  34 0
 6-311+G(2d,p)
 ****
 1  2  14  15  16  17  18  19  20  21  22  24  25  26 0
 3-21G
 ****
 27  35  36  37  38  39  40  41  42  43  44  45 0
 3-21G
 ****


