%nproc=1
%NoSave
%Mem=1900MB
#P OB98/GEN NMR

erre ene a

0 1
  C     -386.852     409.970      79.154
  O     -387.212     408.852      78.328
  P     -388.717     408.312      78.183
  C     -389.813     409.858      76.424
  O     -389.206     408.601      76.681
  C     -391.068     409.691      75.556
  O     -391.829     410.922      75.533
  C     -390.806     409.388      74.091
  O     -390.363     408.059      73.882
  C     -392.166     409.700      73.473
  O     -393.060     408.580      73.580
  C     -392.671     410.861      74.357
  N     -392.691     412.136      73.659
  C     -393.427     412.188      72.475
  O     -393.955     411.174      72.019
  N     -393.535     413.397      71.824
  C     -392.881     414.424      72.260
  N     -393.039     415.595      71.582
  C     -391.982     414.373      73.424
  C     -391.937     413.211      74.073
  O     -389.650     408.825      79.227
  O     -388.598     406.716      78.248
  H     -389.438     406.340      78.578
  H     -393.954     408.911      73.361
  H     -391.417     415.247      73.730
  H     -391.312     413.090      74.953
  H     -393.676     410.641      74.734
  H     -392.093     409.949      72.408
  H     -390.059     410.093      73.702
  H     -391.689     408.904      76.006
  H     -393.672     415.599      70.794
  H     -389.098     410.491      75.888
  H     -392.592     416.460      71.854
  H     -390.058     410.344      77.376
  P     -388.932     407.870      73.189
  C     -387.444     407.212      75.210
  O     -388.114     406.788      74.042
  O     -388.179     409.247      73.492
  O     -388.987     407.597      71.722
  H     -387.650     409.512      72.717
  H     -387.368     406.369      75.899
  H     -387.972     408.031      75.706
  H     -386.433     407.541      74.949
  H     -385.797     410.138      79.087
  H     -387.116     409.763      80.170
  H     -387.374     410.843      78.821

 3  4  5  6  7  8  9  10  11  12  13  24  27  28  29  30  32 0
 6-311+G(2d,p)
 ****
 34  35 0
 6-311+G(2d,p)
 ****
 1  2  14  15  16  17  18  19  20  21  22  23  25  26 0
 3-21G
 ****
 31  33  36  37  38  39  40  41  42  43  44  45  46 0
 3-21G
 ****


