%nproc=1
%NoSave
%Mem=1900MB
#P OB98/GEN NMR

erre ene a

0 1
  C      -88.603     301.750    -737.103
  O      -88.660     302.258    -738.436
  P      -89.247     301.309    -739.584
  C      -91.317     302.826    -740.240
  O      -90.125     302.168    -740.609
  C      -91.594     303.968    -741.248
  O      -90.833     305.143    -740.892
  C      -91.231     303.598    -742.694
  O      -92.278     302.924    -743.349
  C      -90.901     304.961    -743.277
  O      -92.117     305.672    -743.584
  C      -90.172     305.640    -742.090
  N      -88.711     305.402    -741.961
  C      -87.863     305.645    -743.046
  O      -88.249     306.040    -744.136
  N      -86.528     305.423    -742.813
  C      -85.936     305.160    -741.624
  O      -84.732     305.026    -741.466
  C      -86.858     305.073    -740.481
  C      -88.173     305.178    -740.688
  O      -90.333     300.411    -738.820
  O      -88.214     300.468    -740.288
  H      -92.604     305.785    -742.749
  H      -90.062     299.467    -738.823
  H      -85.920     305.523    -743.614
  H      -86.430     304.913    -739.489
  H      -88.867     305.111    -739.848
  H      -90.307     306.729    -742.119
  H      -90.360     304.865    -744.210
  H      -90.312     302.998    -742.702
  H      -92.661     304.224    -741.189
  H      -91.240     303.234    -739.219
  H      -92.142     302.116    -740.236
  P      -91.967     301.963    -744.588
  C      -93.246     300.047    -743.452
  O      -93.141     300.867    -744.605
  O      -90.568     301.416    -744.658
  O      -92.313     302.870    -745.870
  H      -91.493     303.295    -746.229
  H      -94.173     299.468    -743.518
  H      -93.281     300.662    -742.541
  H      -92.400     299.362    -743.395
  H      -88.191     302.495    -736.455
  H      -87.986     300.876    -737.080
  H      -89.590     301.498    -736.775

 3  4  5  6  7  8  9  10  11  12  13  23  28  29  30  31  32 0
 6-311+G(2d,p)
 ****
 33  34 0
 6-311+G(2d,p)
 ****
 1  2  14  15  16  17  18  19  20  21  22  24  25  26  27 0
 3-21G
 ****
 35  36  37  38  39  40  41  42  43  44  45 0
 3-21G
 ****


