%nproc=1
%NoSave
%Mem=1900MB
#P OB98/GEN NMR

erre ene a

0 1
  C      487.469     308.292     -51.744
  O      486.906     307.142     -52.346
  H      487.511     309.090     -52.490
  H      488.483     308.090     -51.385
  H      486.838     308.625     -50.913
  P      486.989     305.752     -51.544
  C      489.094     304.897     -52.765
  O      488.549     305.357     -51.530
  C      490.296     303.982     -52.531
  O      490.823     303.497     -53.789
  C      491.481     304.665     -51.857
  O      491.247     305.065     -50.524
  C      492.612     303.703     -52.163
  O      492.660     302.605     -51.252
  C      492.221     303.205     -53.576
  N      493.052     303.792     -54.619
  C      494.431     303.643     -54.456
  O      494.945     303.085     -53.493
  N      495.210     304.198     -55.435
  C      494.759     304.912     -56.513
  O      495.512     305.403     -57.343
  C      493.295     305.065     -56.612
  C      492.526     304.503     -55.678
  O      486.091     304.657     -52.044
  O      486.708     306.170     -50.024
  H      492.682     302.983     -50.353
  H      486.493     305.379     -49.471
  H      496.208     304.092     -55.342
  H      492.909     305.630     -57.443
  H      491.441     304.600     -55.730
  H      492.324     302.113     -53.636
  H      493.587     304.192     -52.126
  H      491.699     305.589     -52.411
  H      489.959     303.116     -51.954
  H      489.410     305.774     -53.336
  H      488.320     304.370     -53.329
  P      492.003     306.279     -49.816
  C      493.705     304.567     -48.797
  O      493.499     305.810     -49.464
  O      491.236     307.028     -48.777
  O      492.248     307.277     -51.059
  H      492.190     308.190     -50.709
  H      494.753     304.414     -48.643
  H      493.313     303.772     -49.396
  H      493.204     304.582     -47.852

 6  7  8  9  10  11  12  13  14  15  16  26  31  32  33  34  35 0
 6-311+G(2d,p)
 ****
 36  37 0
 6-311+G(2d,p)
 ****
 1  2  3  4  5  17  18  19  20  21  22  23  24  25 0
 3-21G
 ****
 27  28  29  30  38  39  40  41  42  43  44  45 0
 3-21G
 ****


