%nproc=1
%NoSave
%Mem=1900MB
#P OB98/GEN NMR

erre ene a

0 1
  C      -46.233    -709.132    -365.010
  O      -45.664    -710.382    -364.655
  H      -46.631    -709.213    -366.024
  H      -45.460    -708.360    -364.995
  H      -47.041    -708.862    -364.330
  P      -45.290    -710.648    -363.118
  C      -47.505    -711.592    -362.177
  O      -46.640    -710.467    -362.264
  C      -47.830    -711.916    -360.714
  O      -48.461    -710.765    -360.106
  C      -48.820    -713.085    -360.607
  O      -48.658    -713.808    -359.386
  C      -50.170    -712.379    -360.587
  O      -51.208    -713.162    -359.993
  C      -49.839    -711.105    -359.820
  N      -52.355    -706.998    -358.146
  C      -51.743    -708.002    -357.420
  N      -51.818    -707.898    -356.066
  N      -51.145    -709.029    -357.967
  C      -51.220    -709.043    -359.323
  C      -51.815    -708.111    -360.147
  C      -52.444    -706.967    -359.530
  O      -53.016    -706.053    -360.127
  N      -51.691    -708.469    -361.469
  C      -51.024    -709.606    -361.438
  N      -50.697    -709.984    -360.161
  O      -44.447    -709.346    -362.704
  O      -44.528    -711.913    -362.849
  H      -52.048    -712.689    -360.148
  H      -43.883    -709.543    -361.933
  H      -52.775    -706.216    -357.670
  H      -50.755    -710.191    -362.316
  H      -49.923    -711.267    -358.738
  H      -50.467    -712.185    -361.628
  H      -52.431    -707.237    -355.617
  H      -48.751    -713.776    -361.444
  H      -51.650    -708.763    -355.539
  H      -46.898    -712.103    -360.156
  H      -46.987    -712.432    -362.655
  H      -48.423    -711.410    -362.745
  P      -48.602    -715.410    -359.446
  C      -46.100    -715.756    -360.235
  O      -47.485    -715.869    -360.487
  O      -49.971    -715.817    -360.156
  O      -48.451    -716.079    -358.105
  H      -50.543    -716.320    -359.541
  H      -45.553    -716.127    -361.076
  H      -45.848    -716.327    -359.366
  H      -45.850    -714.728    -360.072

 6  7  8  9  10  11  12  13  14  15  26  29  33  34 0
 6-311+G(2d,p)
 ****
 36  38  39  40  41 0
 6-311+G(2d,p)
 ****
 1  2  3  4  5  16  17  18  19  20  21  22  23  24  25 0
 3-21G
 ****
 27  28  30  31  32  35  37  42  43  44  45  46  47 0
 3-21G
 ****
 48  49 0
 3-21G
 ****


