%nproc=1
%NoSave
%Mem=1900MB
#P OB98/GEN NMR

erre ene a

0 1
  C     -320.179       6.845    -366.441
  O     -320.300       6.132    -365.222
  P     -319.373       4.843    -365.017
  C     -317.118       6.145    -364.871
  O     -317.917       5.209    -365.579
  C     -315.777       5.507    -364.505
  O     -315.976       4.425    -363.566
  C     -315.051       4.892    -365.692
  O     -314.395       5.880    -366.469
  C     -314.092       3.927    -365.003
  O     -312.908       4.610    -364.559
  C     -314.931       3.453    -363.797
  N     -315.476       2.114    -363.986
  C     -314.561       1.067    -363.884
  O     -313.361       1.245    -363.673
  N     -315.066      -0.189    -364.075
  C     -316.353      -0.497    -364.407
  O     -316.735      -1.639    -364.623
  C     -317.268       0.651    -364.529
  C     -316.795       1.881    -364.323
  O     -319.939       3.790    -366.082
  O     -319.377       4.287    -363.633
  H     -312.408       3.973    -364.012
  H     -319.882       2.885    -365.717
  H     -314.426      -0.964    -363.984
  H     -318.298       0.446    -364.793
  H     -317.449       2.741    -364.421
  H     -314.318       3.450    -362.889
  H     -313.769       3.123    -365.665
  H     -315.755       4.316    -366.305
  H     -315.150       6.268    -364.021
  H     -317.641       6.455    -363.962
  H     -316.964       7.032    -365.496
  P     -314.028       5.489    -367.984
  C     -316.052       6.749    -369.051
  O     -315.424       5.519    -368.770
  O     -313.674       3.939    -367.813
  O     -312.927       6.323    -368.551
  H     -314.198       3.516    -367.114
  H     -315.321       7.533    -369.267
  H     -316.664       7.047    -368.196
  H     -316.702       6.622    -369.924
  H     -320.854       7.675    -366.437
  H     -320.416       6.197    -367.259
  H     -319.176       7.201    -366.548

 3  4  5  6  7  8  9  10  11  12  13  23  28  29  30  31  32 0
 6-311+G(2d,p)
 ****
 33  34 0
 6-311+G(2d,p)
 ****
 1  2  14  15  16  17  18  19  20  21  22  24  25  26 0
 3-21G
 ****
 27  35  36  37  38  39  40  41  42  43  44  45 0
 3-21G
 ****


