%nproc=1
%NoSave
%Mem=1900MB
#P OB98/GEN NMR

erre ene a

0 1
  C     -890.140    -683.439    -123.221
  O     -891.200    -684.271    -123.652
  H     -890.210    -683.268    -122.140
  H     -889.190    -683.934    -123.434
  H     -890.170    -682.481    -123.751
  P     -892.690    -683.739    -123.391
  C     -893.380    -683.015    -125.794
  O     -892.930    -682.611    -124.507
  C     -894.450    -682.046    -126.282
  O     -895.550    -682.002    -125.343
  C     -893.970    -680.609    -126.419
  O     -893.280    -680.379    -127.632
  C     -895.280    -679.859    -126.374
  O     -895.950    -679.968    -127.647
  C     -896.050    -680.641    -125.300
  N     -898.450    -678.782    -121.170
  C     -898.910    -679.279    -122.341
  N     -898.210    -679.778    -123.374
  C     -896.900    -679.734    -123.125
  C     -896.270    -679.255    -121.987
  C     -897.100    -678.757    -120.973
  N     -896.630    -678.220    -119.798
  N     -894.900    -679.356    -122.103
  C     -894.700    -679.896    -123.290
  N     -895.880    -680.111    -123.960
  O     -892.560    -682.889    -122.041
  O     -893.760    -684.785    -123.325
  H     -895.320    -679.666    -128.324
  H     -893.440    -682.707    -121.670
  H     -900.000    -679.283    -122.445
  H     -893.730    -680.138    -123.711
  H     -897.130    -680.675    -125.498
  H     -895.160    -678.789    -126.174
  H     -893.360    -680.307    -125.553
  H     -894.850    -682.419    -127.236
  H     -893.800    -684.024    -125.726
  H     -897.300    -677.751    -119.202
  H     -895.640    -678.059    -119.698
  H     -892.540    -683.023    -126.487
  P     -892.110    -679.272    -127.622
  C     -889.890    -680.625    -127.549
  O     -890.880    -679.913    -126.809
  O     -892.680    -678.159    -126.624
  O     -891.780    -678.705    -128.970
  H     -892.370    -677.270    -126.881
  H     -889.140    -680.992    -126.880
  H     -889.440    -679.970    -128.265
  H     -890.348    -681.448    -128.057

 6  7  8  9  10  11  12  13  14  15  25  28  32  33  34  35 0
 6-311+G(2d,p)
 ****
 36  39  40 0
 6-311+G(2d,p)
 ****
 1  2  3  4  5  16  17  18  19  20  21  22  23  24 0
 3-21G
 ****
 26  27  29  30  31  37  38  41  42  43  44  45  46  47 0
 3-21G
 ****
 48 0
 3-21G
 ****


