%nproc=1
%NoSave
%Mem=1900MB
#P OB98/GEN NMR

erre ene a

0 1
  C     -302.578     -40.287     -26.501
  O     -303.215     -41.424     -27.035
  P     -304.721     -41.832     -26.719
  C     -304.098     -43.550     -24.843
  O     -304.799     -42.362     -25.204
  C     -304.966     -44.454     -23.957
  O     -305.126     -43.816     -22.659
  C     -306.377     -44.630     -24.547
  O     -306.884     -45.957     -24.458
  C     -307.174     -43.527     -23.854
  O     -308.581     -43.746     -23.871
  C     -306.517     -43.497     -22.475
  N     -309.607     -40.011     -20.430
  C     -309.899     -41.300     -20.842
  N     -311.203     -41.633     -20.864
  N     -308.985     -42.161     -21.211
  C     -307.736     -41.651     -21.237
  C     -307.325     -40.390     -20.858
  C     -308.333     -39.460     -20.418
  O     -308.141     -38.272     -20.163
  N     -305.982     -40.204     -21.086
  C     -305.591     -41.332     -21.637
  N     -306.618     -42.229     -21.776
  O     -305.447     -42.606     -27.767
  O     -305.435     -40.385     -26.598
  H     -309.006     -42.921     -23.587
  H     -306.346     -40.486     -26.936
  H     -310.364     -39.364     -20.230
  H     -304.580     -41.542     -21.971
  H     -306.954     -44.245     -21.809
  H     -306.993     -42.600     -24.398
  H     -311.936     -40.947     -20.725
  H     -306.372     -44.437     -25.625
  H     -311.456     -42.467     -21.386
  H     -304.452     -45.407     -23.805
  H     -303.208     -43.225     -24.289
  H     -303.761     -44.084     -25.734
  P     -308.005     -46.665     -25.348
  C     -309.671     -46.867     -23.399
  O     -309.440     -46.360     -24.703
  O     -307.820     -48.226     -25.074
  O     -307.912     -46.383     -26.811
  H     -307.951     -48.724     -25.914
  H     -310.735     -46.835     -23.188
  H     -309.142     -46.241     -22.670
  H     -309.316     -47.899     -23.315
  H     -301.573     -40.237     -26.866
  H     -302.567     -40.353     -25.433
  H     -303.110     -39.407     -26.799

 3  4  5  6  7  8  9  10  11  12  23  26  30  31 0
 6-311+G(2d,p)
 ****
 33  35  36  37  38 0
 6-311+G(2d,p)
 ****
 1  2  13  14  15  16  17  18  19  20  21  22  24  25 0
 3-21G
 ****
 27  28  29  32  34  39  40  41  42  43  44  45  46  47  48  49 0
 3-21G
 ****


