%nproc=1
%NoSave
%Mem=1900MB
#P OB98/GEN NMR

erre ene a

0 1
  C      -14.803     485.756     -56.886
  O      -15.572     486.938     -56.963
  H      -14.805     485.268     -57.865
  H      -15.246     485.077     -56.154
  H      -13.768     485.981     -56.609
  P      -15.451     487.973     -55.741
  C      -14.822     490.084     -57.114
  O      -15.804     489.431     -56.322
  C      -15.471     491.157     -57.983
  O      -16.325     490.524     -58.971
  C      -16.340     492.154     -57.192
  O      -16.167     493.465     -57.748
  C      -17.757     491.676     -57.456
  O      -18.726     492.719     -57.318
  C      -17.629     491.126     -58.875
  N      -21.906     490.359     -61.430
  C      -21.042     491.441     -61.437
  N      -21.378     492.479     -62.238
  N      -19.950     491.495     -60.718
  C      -19.732     490.373     -59.989
  C      -20.513     489.240     -59.895
  C      -21.733     489.207     -60.670
  O      -22.549     488.291     -60.691
  N      -19.964     488.332     -59.019
  C      -18.862     488.911     -58.594
  N      -18.670     490.151     -59.158
  O      -13.872     488.043     -55.476
  O      -16.197     487.589     -54.503
  H      -18.447     493.454     -57.909
  H      -13.672     487.689     -54.593
  H      -22.745     490.378     -61.995
  H      -18.167     488.491     -57.870
  H      -17.702     491.910     -59.633
  H      -18.013     490.878     -56.747
  H      -22.165     492.484     -62.853
  H      -16.105     492.179     -56.127
  H      -20.732     493.261     -62.288
  H      -14.679     491.688     -58.535
  H      -14.342     489.336     -57.757
  H      -14.072     490.535     -56.459
  P      -15.778     494.645     -56.723
  C      -13.809     495.525     -58.156
  O      -15.062     495.820     -57.553
  O      -14.595     494.001     -55.861
  O      -16.913     495.079     -55.850
  H      -14.899     493.799     -54.961
  H      -13.449     496.390     -58.672
  H      -13.928     494.719     -58.850
  H      -13.107     495.243     -57.400

 6  7  8  9  10  11  12  13  14  15  26  29  33  34 0
 6-311+G(2d,p)
 ****
 36  38  39  40  41 0
 6-311+G(2d,p)
 ****
 1  2  3  4  5  16  17  18  19  20  21  22  23  24  25 0
 3-21G
 ****
 27  28  30  31  32  35  37  42  43  44  45  46  47 0
 3-21G
 ****
 48  49 0
 3-21G
 ****


