%nproc=1
%NoSave
%Mem=1900MB
#P OB98/GEN NMR

erre ene a

0 1
  C      -58.710     106.990     344.455
  O      -58.183     107.418     343.218
  H      -57.903     106.978     345.190
  H      -59.113     105.981     344.357
  H      -59.494     107.667     344.803
  P      -59.193     107.838     342.049
  C      -58.066     107.191     339.817
  O      -58.302     108.217     340.770
  C      -57.197     107.708     338.664
  O      -57.732     108.982     338.209
  C      -55.757     107.965     339.114
  O      -54.827     107.826     338.041
  C      -55.797     109.422     339.546
  O      -54.510     110.047     339.524
  C      -56.785     110.010     338.541
  N      -56.817     115.090     339.012
  C      -55.799     114.255     338.593
  N      -54.631     114.862     338.248
  N      -55.900     112.952     338.535
  C      -57.092     112.486     338.977
  C      -58.173     113.207     339.436
  C      -58.054     114.649     339.462
  O      -58.919     115.433     339.849
  N      -59.204     112.384     339.808
  C      -58.753     111.166     339.574
  N      -57.487     111.180     339.048
  O      -59.744     109.264     342.520
  O      -60.312     106.874     341.786
  H      -54.137     109.915     338.632
  H      -60.598     109.457     342.094
  H      -56.693     116.084     339.011
  H      -59.307     110.254     339.752
  H      -56.273     110.306     337.621
  H      -56.155     109.467     340.578
  H      -54.453     115.827     338.465
  H      -55.455     107.322     339.937
  H      -53.800     114.261     338.241
  H      -57.255     107.020     337.810
  H      -59.043     106.863     339.450
  H      -57.595     106.330     340.297
  P      -54.386     106.347     337.606
  C      -51.798     106.303     337.055
  O      -53.132     106.424     336.614
  O      -55.580     105.851     336.669
  O      -54.144     105.409     338.750
  H      -56.040     105.092     337.078
  H      -51.137     106.386     336.218
  H      -51.662     105.351     337.524
  H      -51.583     107.080     337.758

 6  7  8  9  10  11  12  13  14  15  26  29  33  34 0
 6-311+G(2d,p)
 ****
 36  38  39  40  41 0
 6-311+G(2d,p)
 ****
 1  2  3  4  5  16  17  18  19  20  21  22  23  24  25 0
 3-21G
 ****
 27  28  30  31  32  35  37  42  43  44  45  46  47 0
 3-21G
 ****
 48  49 0
 3-21G
 ****


