%nproc=1
%NoSave
%Mem=1900MB
#P OB98/GEN NMR

erre ene a

0 1
  C      225.167     834.067     371.842
  O      225.965     833.274     372.717
  P      225.920     833.350     374.314
  C      223.498     833.241     375.303
  O      224.629     832.552     374.815
  C      222.330     832.315     375.692
  O      221.812     831.651     374.493
  C      222.818     831.199     376.622
  O      222.915     831.431     378.019
  C      221.948     829.998     376.262
  O      220.805     829.871     377.096
  C      221.523     830.274     374.823
  N      222.434     825.455     373.352
  C      221.787     825.919     374.474
  N      221.339     824.970     375.351
  N      221.575     827.174     374.733
  C      222.139     828.012     373.817
  C      222.825     827.676     372.674
  C      222.998     826.277     372.391
  O      223.572     825.804     371.390
  N      223.258     828.794     372.014
  C      222.865     829.804     372.753
  N      222.165     829.380     373.866
  O      226.132     834.711     374.893
  O      227.156     832.428     374.776
  H      220.309     829.085     376.818
  H      227.502     832.813     375.603
  H      222.544     824.454     373.193
  H      223.024     830.854     372.537
  H      220.444     830.158     374.706
  H      222.516     829.060     376.392
  H      221.580     823.997     375.277
  H      223.831     830.931     376.305
  H      221.068     825.324     376.263
  H      221.497     832.878     376.108
  H      223.176     833.941     374.532
  H      223.774     833.834     376.184
  P      224.236     831.930     378.794
  C      223.772     834.100     380.066
  O      224.213     833.522     378.849
  O      225.432     831.619     377.776
  O      224.484     831.243     380.114
  H      226.286     831.630     378.229
  H      223.494     835.161     379.864
  H      224.561     834.057     380.808
  H      222.874     833.576     380.449
  H      225.395     833.817     370.827
  H      225.376     835.103     372.009
  H      224.132     833.877     372.033

 3  4  5  6  7  8  9  10  11  12  23  26  30  31 0
 6-311+G(2d,p)
 ****
 33  35  36  37  38 0
 6-311+G(2d,p)
 ****
 1  2  13  14  15  16  17  18  19  20  21  22  24  25 0
 3-21G
 ****
 27  28  29  32  34  39  40  41  42  43  44  45  46  47  48  49 0
 3-21G
 ****


