%nproc=1
%NoSave
%Mem=1900MB
#P OB98/GEN NMR

erre ene a

0 1
  C     1320.396     -36.636    -204.587
  O     1320.149     -36.463    -203.201
  P     1321.344     -36.233    -202.139
  C     1322.182     -38.676    -202.272
  O     1321.564     -37.666    -201.467
  C     1321.908     -40.058    -201.670
  O     1322.687     -40.209    -200.460
  C     1320.455     -40.320    -201.265
  O     1319.604     -40.755    -202.315
  C     1320.665     -41.485    -200.277
  O     1320.856     -42.714    -201.004
  C     1321.947     -41.048    -199.559
  N     1320.144     -41.480    -194.779
  C     1320.336     -42.398    -195.772
  N     1320.786     -42.201    -197.020
  C     1321.132     -40.920    -197.190
  C     1321.033     -39.881    -196.284
  C     1320.517     -40.195    -195.016
  N     1320.357     -39.271    -193.993
  N     1321.485     -38.684    -196.837
  C     1321.879     -39.004    -198.053
  N     1321.673     -40.341    -198.311
  O     1321.144     -35.075    -201.229
  O     1322.640     -36.072    -203.073
  H     1320.014     -42.937    -201.414
  H     1323.376     -35.660    -202.548
  H     1320.021     -43.409    -195.538
  H     1322.273     -38.314    -198.777
  H     1322.593     -41.906    -199.310
  H     1319.784     -41.629    -199.619
  H     1320.026     -39.478    -200.725
  H     1322.252     -40.816    -202.390
  H     1323.259     -38.493    -202.272
  H     1320.109     -39.624    -193.077
  H     1320.789     -38.352    -194.127
  H     1321.818     -38.588    -203.283
  P     1318.184     -40.038    -202.453
  C     1317.223     -41.457    -200.448
  O     1317.116     -41.077    -201.824
  O     1317.848     -39.549    -203.820
  O     1318.258     -38.880    -201.347
  H     1318.299     -39.179    -200.420
  H     1316.324     -42.013    -200.179
  H     1317.284     -40.562    -199.818
  H     1318.104     -42.070    -200.314
  H     1319.467     -36.772    -205.101
  H     1321.014     -37.497    -204.734
  H     1320.893     -35.770    -204.972

 3  4  5  6  7  8  9  10  11  12  22  25  29  30  31  32 0
 6-311+G(2d,p)
 ****
 33  36  37 0
 6-311+G(2d,p)
 ****
 1  2  13  14  15  16  17  18  19  20  21  23  24  26 0
 3-21G
 ****
 27  28  34  35  38  39  40  41  42  43  44  45  46  47  48 0
 3-21G
 ****


