%nproc=1
%NoSave
%Mem=1900MB
#P OB98/GEN NMR

erre ene a

0 1
  C     -122.934     297.972     493.292
  O     -124.254     298.166     493.765
  P     -125.347     296.996     493.660
  C     -126.683     295.801     491.831
  O     -125.780     296.852     492.122
  C     -127.383     296.025     490.487
  O     -128.401     297.057     490.640
  C     -126.445     296.456     489.351
  O     -126.904     295.814     488.158
  C     -126.671     297.954     489.274
  O     -126.306     298.487     488.008
  C     -128.162     298.042     489.614
  N     -128.557     299.369     490.048
  C     -128.438     300.403     489.110
  O     -127.896     300.193     488.028
  N     -128.927     301.646     489.440
  C     -129.318     301.875     490.660
  N     -129.859     303.098     490.923
  C     -129.222     300.870     491.735
  C     -128.878     299.636     491.358
  O     -126.490     297.117     494.615
  O     -124.515     295.652     493.928
  H     -124.945     295.145     494.650
  H     -126.597     297.873     487.308
  H     -129.441     301.148     492.755
  H     -128.808     298.827     492.074
  H     -128.770     297.755     488.746
  H     -126.072     298.461     490.036
  H     -125.403     296.175     489.540
  H     -127.903     295.102     490.216
  H     -129.944     303.747     490.149
  H     -127.436     295.769     492.622
  H     -130.465     303.259     491.724
  H     -126.153     294.843     491.832
  P     -125.804     295.231     487.136
  C     -124.811     295.989     484.858
  O     -125.550     296.343     486.004
  O     -126.662     294.133     486.334
  O     -124.601     294.593     487.742
  H     -126.056     293.457     485.975
  H     -124.670     296.879     484.241
  H     -125.346     295.236     484.275
  H     -123.823     295.605     485.140
  H     -122.363     298.863     493.451
  H     -122.959     297.747     492.246
  H     -122.481     297.159     493.821

 3  4  5  6  7  8  9  10  11  12  13  24  27  28  29  30  32 0
 6-311+G(2d,p)
 ****
 34  35 0
 6-311+G(2d,p)
 ****
 1  2  14  15  16  17  18  19  20  21  22  23  25  26 0
 3-21G
 ****
 31  33  36  37  38  39  40  41  42  43  44  45  46 0
 3-21G
 ****


