%nproc=1
%NoSave
%Mem=1900MB
#P OB98/GEN NMR

erre ene a

0 1
  C     -146.465    -209.120    -741.574
  O     -147.297    -210.129    -742.118
  H     -145.473    -209.532    -741.373
  H     -146.368    -208.313    -742.305
  H     -146.896    -208.713    -740.656
  P     -147.824    -211.264    -741.113
  C     -149.496    -211.108    -739.132
  O     -149.173    -210.694    -740.453
  C     -150.834    -211.844    -739.115
  O     -151.895    -210.887    -739.400
  C     -150.944    -212.982    -740.144
  O     -151.663    -214.069    -739.546
  C     -151.796    -212.374    -741.248
  O     -152.497    -213.352    -742.007
  C     -152.704    -211.449    -740.448
  N     -156.699    -210.269    -743.368
  C     -156.519    -211.227    -742.434
  N     -155.432    -211.441    -741.655
  C     -154.502    -210.493    -741.871
  C     -154.544    -209.453    -742.785
  C     -155.710    -209.366    -743.580
  N     -155.876    -208.437    -744.576
  N     -153.368    -208.730    -742.750
  C     -152.618    -209.334    -741.850
  N     -153.256    -210.411    -741.297
  O     -146.757    -211.187    -739.916
  O     -147.920    -212.637    -741.687
  H     -153.213    -212.912    -742.508
  H     -145.998    -211.762    -740.120
  H     -157.344    -211.920    -742.299
  H     -151.608    -209.063    -741.594
  H     -153.545    -211.980    -739.984
  H     -151.154    -211.800    -741.929
  H     -149.976    -213.340    -740.514
  H     -151.009    -212.225    -738.100
  H     -149.567    -210.224    -738.488
  H     -156.694    -208.523    -745.160
  H     -155.103    -207.833    -744.818
  H     -148.698    -211.754    -738.751
  P     -150.804    -215.265    -738.912
  C     -148.370    -214.998    -738.021
  O     -149.742    -214.639    -737.883
  O     -149.894    -215.750    -740.136
  O     -151.634    -216.381    -738.370
  H     -149.727    -216.708    -740.079
  H     -147.794    -214.503    -737.267
  H     -148.020    -214.704    -738.988
  H     -148.266    -216.057    -737.911

 6  7  8  9  10  11  12  13  14  15  25  28  32  33  34  35 0
 6-311+G(2d,p)
 ****
 36  39  40 0
 6-311+G(2d,p)
 ****
 1  2  3  4  5  16  17  18  19  20  21  22  23  24 0
 3-21G
 ****
 26  27  29  30  31  37  38  41  42  43  44  45  46  47 0
 3-21G
 ****
 48 0
 3-21G
 ****


