%nproc=1
%NoSave
%Mem=1900MB
#P OB98/GEN NMR

erre ene a

0 1
  C      468.050     471.531    -521.124
  O      468.918     470.439    -521.362
  H      468.529     472.210    -520.417
  H      467.111     471.177    -520.687
  H      467.844     472.076    -522.054
  P      468.516     469.353    -522.475
  C      468.090     467.402    -520.836
  O      467.521     468.302    -521.777
  C      467.215     466.155    -520.669
  O      467.028     465.530    -521.965
  C      467.798     465.103    -519.718
  O      466.746     464.493    -518.969
  C      468.409     464.080    -520.659
  O      468.484     462.781    -520.075
  C      467.467     464.155    -521.867
  N      468.026     460.324    -525.116
  C      467.203     460.438    -524.001
  N      466.433     459.379    -523.706
  N      467.152     461.510    -523.252
  C      467.970     462.508    -523.683
  C      468.822     462.520    -524.756
  C      468.884     461.321    -525.571
  O      469.608     461.155    -526.547
  N      469.497     463.712    -524.856
  C      469.044     464.430    -523.835
  N      468.122     463.738    -523.089
  O      469.672     468.739    -523.197
  O      467.558     470.158    -523.480
  H      467.566     462.487    -519.918
  H      468.022     470.369    -524.305
  H      468.036     459.473    -525.649
  H      469.349     465.441    -523.600
  H      466.573     463.523    -521.744
  H      469.430     464.392    -520.941
  H      466.402     458.521    -524.259
  H      468.539     465.529    -519.040
  H      465.803     459.447    -522.929
  H      466.218     466.478    -520.333
  H      468.182     467.925    -519.873
  H      469.096     467.110    -521.168
  P      466.377     465.082    -517.523
  C      468.131     464.052    -515.951
  O      467.732     465.220    -516.663
  O      465.246     464.409    -516.812
  O      466.015     466.624    -517.838
  H      465.309     466.914    -517.234
  H      469.037     464.252    -515.417
  H      468.293     463.251    -516.642
  H      467.363     463.776    -515.259

 6  7  8  9  10  11  12  13  14  15  26  29  33  34 0
 6-311+G(2d,p)
 ****
 36  38  39  40  41 0
 6-311+G(2d,p)
 ****
 1  2  3  4  5  16  17  18  19  20  21  22  23  24  25 0
 3-21G
 ****
 27  28  30  31  32  35  37  42  43  44  45  46  47 0
 3-21G
 ****
 48  49 0
 3-21G
 ****


