%nproc=1
%NoSave
%Mem=1900MB
#P OB98/GEN NMR

erre ene a

0 1
  C     -318.496     169.087      66.383
  O     -318.867     167.759      66.719
  P     -319.617     166.896      65.598
  C     -321.866     166.508      66.856
  O     -321.188     167.154      65.782
  C     -323.372     166.691      66.714
  O     -323.705     168.093      66.725
  C     -323.954     166.146      65.414
  O     -324.054     164.731      65.453
  C     -325.299     166.870      65.389
  O     -326.236     166.232      66.272
  C     -324.913     168.262      65.932
  N     -326.487     172.658      63.823
  C     -326.977     171.922      64.848
  N     -326.523     170.754      65.341
  C     -325.428     170.350      64.659
  C     -324.826     170.978      63.576
  C     -325.401     172.191      63.165
  N     -324.900     172.937      62.117
  N     -323.749     170.260      63.123
  C     -323.681     169.216      63.927
  N     -324.668     169.226      64.883
  O     -319.423     165.389      66.099
  O     -319.094     167.087      64.203
  H     -326.502     165.392      65.851
  H     -319.339     164.773      65.344
  H     -327.856     172.329      65.350
  H     -322.946     168.421      63.866
  H     -325.688     168.678      66.592
  H     -325.756     166.897      64.390
  H     -323.343     166.447      64.562
  H     -323.857     166.214      67.576
  H     -321.543     166.952      67.807
  H     -325.456     173.709      61.785
  H     -324.179     172.517      61.540
  H     -321.590     165.450      66.866
  P     -324.328     163.973      64.065
  C     -326.641     163.070      64.765
  O     -325.930     163.981      63.943
  O     -324.015     162.452      64.458
  O     -323.573     164.506      62.900
  H     -324.461     162.197      65.281
  H     -327.707     163.218      64.624
  H     -326.398     163.246      65.813
  H     -326.378     162.040      64.484
  H     -318.007     169.543      67.219
  H     -319.371     169.649      66.131
  H     -317.830     169.070      65.546

 3  4  5  6  7  8  9  10  11  12  22  25  29  30  31  32 0
 6-311+G(2d,p)
 ****
 33  36  37 0
 6-311+G(2d,p)
 ****
 1  2  13  14  15  16  17  18  19  20  21  23  24  26 0
 3-21G
 ****
 27  28  34  35  38  39  40  41  42  43  44  45  46  47  48 0
 3-21G
 ****


