%nproc=1
%NoSave
%Mem=1900MB
#P OB98/GEN NMR

erre ene a

0 1
  C       71.522    -253.443     -82.818
  O       71.641    -252.333     -81.951
  P       73.027    -252.023     -81.206
  C       73.720    -250.291     -82.988
  O       73.402    -250.515     -81.616
  C       73.237    -248.915     -83.441
  O       71.796    -248.864     -83.459
  C       73.679    -247.772     -82.536
  O       75.035    -247.446     -82.774
  C       72.686    -246.686     -82.926
  O       73.104    -246.004     -84.119
  C       71.401    -247.503     -83.189
  N       70.458    -247.423     -82.079
  C       69.171    -246.978     -82.400
  O       68.895    -246.648     -83.554
  N       68.241    -246.870     -81.392
  C       68.576    -247.159     -80.175
  N       67.614    -247.022     -79.222
  C       69.931    -247.602     -79.790
  C       70.813    -247.708     -80.782
  O       74.102    -253.033     -81.417
  O       72.585    -251.874     -79.672
  H       72.391    -245.372     -84.336
  H       72.379    -252.754     -79.269
  H       70.166    -247.820     -78.758
  H       71.830    -248.025     -80.587
  H       70.894    -247.142     -84.094
  H       72.576    -245.928     -82.146
  H       73.525    -248.050     -81.486
  H       73.597    -248.749     -84.466
  H       66.707    -246.686     -79.521
  H       73.224    -251.064     -83.585
  H       67.778    -247.184     -78.239
  H       74.802    -250.389     -83.130
  P       75.947    -246.897     -81.577
  C       77.111    -249.133     -81.096
  O       77.273    -247.794     -81.521
  O       75.245    -246.715     -80.271
  O       76.483    -245.493     -82.131
  H       76.416    -244.826     -81.420
  H       77.982    -249.711     -81.414
  H       76.212    -249.578     -81.532
  H       77.042    -249.162     -80.006
  H       70.529    -253.481     -83.215
  H       71.723    -254.343     -82.275
  H       72.223    -253.346     -83.620

 3  4  5  6  7  8  9  10  11  12  13  23  27  28  29  30  32 0
 6-311+G(2d,p)
 ****
 34  35 0
 6-311+G(2d,p)
 ****
 1  2  14  15  16  17  18  19  20  21  22  24  25  26 0
 3-21G
 ****
 31  33  36  37  38  39  40  41  42  43  44  45  46 0
 3-21G
 ****


