%nproc=1
%NoSave
%Mem=1900MB
#P OB98/GEN NMR

erre ene a

0 1
  C      -70.219     190.383     259.794
  O      -70.554     191.329     260.788
  P      -71.676     192.433     260.551
  C      -72.706     192.070     262.898
  O      -72.094     193.000     262.002
  C      -73.468     192.820     263.985
  O      -72.518     193.489     264.871
  C      -74.430     193.902     263.413
  O      -75.781     193.803     263.869
  C      -73.721     195.199     263.769
  O      -74.565     196.340     263.781
  C      -73.031     194.828     265.086
  N      -71.975     195.769     265.459
  C      -72.371     197.063     265.807
  O      -73.528     197.453     265.837
  N      -71.348     197.943     266.076
  C      -70.026     197.707     265.906
  O      -69.162     198.573     266.075
  C      -69.665     196.339     265.498
  C      -70.635     195.433     265.314
  O      -72.841     191.991     259.717
  O      -70.869     193.664     259.932
  H      -73.996     197.125     263.842
  H      -70.164     194.012     260.500
  H      -71.638     198.884     266.334
  H      -68.625     196.122     265.348
  H      -70.403     194.412     265.011
  H      -73.742     194.784     265.910
  H      -72.950     195.384     262.993
  H      -74.511     193.814     262.330
  H      -74.036     192.084     264.574
  H      -71.921     191.473     263.362
  H      -73.357     191.390     262.330
  P      -77.061     194.349     263.077
  C      -77.581     191.877     262.396
  O      -78.074     193.123     262.858
  O      -76.751     195.136     261.842
  O      -77.810     195.260     264.158
  H      -78.309     195.969     263.698
  H      -78.371     191.371     261.840
  H      -77.296     191.264     263.259
  H      -76.708     192.006     261.744
  H      -69.446     189.740     260.160
  H      -69.874     190.892     258.918
  H      -71.083     189.800     259.551

 3  4  5  6  7  8  9  10  11  12  13  23  28  29  30  31  32 0
 6-311+G(2d,p)
 ****
 33  34 0
 6-311+G(2d,p)
 ****
 1  2  14  15  16  17  18  19  20  21  22  24  25  26  27 0
 3-21G
 ****
 35  36  37  38  39  40  41  42  43  44  45 0
 3-21G
 ****


