%nproc=1
%NoSave
%Mem=1900MB
#P OB98/GEN NMR

erre ene a

0 1
  C      596.760     500.463     544.118
  O      597.717     501.255     544.804
  P      598.820     500.490     545.689
  C      598.897     499.542     548.123
  O      598.088     500.085     547.068
  C      598.248     499.779     549.484
  O      598.502     501.148     549.904
  C      596.742     499.540     549.512
  O      596.405     498.951     550.769
  C      596.160     500.932     549.465
  O      594.844     500.991     550.018
  C      597.232     501.734     550.236
  N      597.191     503.166     549.917
  C      596.145     503.908     550.452
  O      595.239     503.338     551.081
  N      596.082     505.258     550.213
  C      596.960     505.803     549.418
  N      596.875     507.140     549.222
  C      598.027     505.032     548.744
  C      598.093     503.743     549.054
  O      599.813     501.663     546.126
  O      599.524     499.380     544.984
  H      594.234     500.522     549.410
  H      600.723     501.332     546.210
  H      598.704     505.525     548.061
  H      598.854     503.098     548.626
  H      597.069     501.626     551.327
  H      596.103     501.291     548.421
  H      596.396     498.890     548.703
  H      598.754     499.130     550.222
  H      596.128     507.649     549.678
  H      599.861     500.048     548.105
  H      597.506     507.652     548.613
  H      599.045     498.481     547.941
  P      595.128     497.978     550.828
  C      592.616     498.403     551.192
  O      593.859     498.950     550.791
  O      595.143     497.525     552.381
  O      595.109     496.788     549.925
  H      594.433     496.878     552.537
  H      591.878     499.204     551.256
  H      592.711     497.928     552.185
  H      592.289     497.667     550.465
  H      596.094     501.100     543.574
  H      596.203     499.885     544.825
  H      597.262     499.807     543.438

 3  4  5  6  7  8  9  10  11  12  13  21  23  27  28  29  30  32 0
 6-311+G(2d,p)
 ****
 34  35 0
 6-311+G(2d,p)
 ****
 1  2  14  15  16  17  18  19  20  22  24  25  26 0
 3-21G
 ****
 31  33  36  37  38  39  40  41  42  43  44  45  46 0
 3-21G
 ****


