%nproc=1
%NoSave
%Mem=1900MB
#P OB98/GEN NMR

erre ene a

0 1
  C     -258.124     209.732     548.707
  O     -258.457     211.044     548.234
  P     -258.918     211.196     546.706
  C     -256.588     211.650     545.635
  O     -257.694     210.770     545.761
  C     -255.569     211.096     544.635
  O     -255.185     209.746     544.955
  C     -256.084     211.044     543.206
  O     -255.972     212.305     542.565
  C     -255.114     210.045     542.581
  O     -253.874     210.705     542.261
  C     -254.905     209.042     543.720
  N     -255.176     204.125     542.324
  C     -254.173     205.032     542.240
  N     -254.186     206.327     542.624
  C     -255.376     206.661     543.139
  C     -256.488     205.847     543.283
  C     -256.359     204.516     542.848
  N     -257.379     203.598     542.934
  N     -257.533     206.542     543.850
  C     -257.061     207.752     544.059
  N     -255.761     207.876     543.639
  O     -258.998     212.781     546.507
  O     -260.224     210.540     546.399
  H     -253.476     210.980     543.107
  H     -259.725     213.002     545.894
  H     -253.242     204.665     541.818
  H     -257.611     208.569     544.515
  H     -253.870     208.685     543.774
  H     -255.499     209.616     541.649
  H     -257.109     210.651     543.172
  H     -254.669     211.731     544.681
  H     -256.114     211.797     546.610
  H     -257.201     202.652     542.625
  H     -258.253     203.881     543.346
  H     -256.951     212.639     545.321
  P     -257.320     213.159     542.379
  C     -257.501     212.353     539.920
  O     -258.120     212.452     541.185
  O     -256.790     214.530     541.743
  O     -258.084     213.384     543.637
  H     -257.372     215.264     542.007
  H     -258.029     211.598     539.328
  H     -256.457     212.054     540.007
  H     -257.568     213.316     539.402
  H     -257.837     209.786     549.736
  H     -257.312     209.340     548.130
  H     -258.974     209.090     548.607

 3  4  5  6  7  8  9  10  11  12  22  25  29  30  31  32 0
 6-311+G(2d,p)
 ****
 33  36  37 0
 6-311+G(2d,p)
 ****
 1  2  13  14  15  16  17  18  19  20  21  23  24  26 0
 3-21G
 ****
 27  28  34  35  38  39  40  41  42  43  44  45  46  47  48 0
 3-21G
 ****


