%nproc=1
%NoSave
%Mem=1900MB
#P OB98/GEN NMR

erre ene a

0 1
  C      158.629     192.240       4.076
  O      157.801     192.927       3.161
  H      159.536     192.829       4.239
  H      158.914     191.261       3.685
  H      158.114     192.122       5.034
  P      156.475     192.205       2.625
  C      155.506     191.775       0.277
  O      156.682     191.987       1.048
  C      155.840     191.059      -1.032
  O      156.559     191.981      -1.893
  C      156.704     189.807      -0.845
  O      156.277     188.821      -1.787
  C      158.092     190.308      -1.190
  O      158.941     189.253      -1.597
  C      157.801     191.360      -2.268
  N      158.892     192.329      -2.368
  C      160.088     191.865      -2.927
  O      160.182     190.701      -3.318
  N      161.170     192.706      -2.970
  C      161.087     193.890      -2.448
  N      162.208     194.659      -2.490
  C      159.854     194.411      -1.826
  C      158.805     193.587      -1.820
  O      155.180     192.844       3.002
  O      156.590     190.721       3.214
  H      159.830     189.610      -1.799
  H      156.151     190.672       4.085
  H      159.838     195.402      -1.399
  H      157.863     193.880      -1.372
  H      157.660     190.884      -3.247
  H      158.542     190.785      -0.310
  H      156.657     189.403       0.170
  H      154.899     190.814      -1.545
  H      163.036     194.249      -2.906
  H      155.066     192.753       0.059
  H      162.277     195.577      -2.081
  H      154.787     191.186       0.855
  P      155.678     187.418      -1.286
  C      156.466     185.026      -0.831
  O      156.831     186.302      -1.346
  O      154.393     187.019      -1.937
  O      155.460     187.637       0.288
  H      154.708     187.091       0.589
  H      157.296     184.357      -0.915
  H      155.639     184.640      -1.389
  H      156.189     185.123       0.198

 6  7  8  9  10  11  12  13  14  15  16  26  30  31  32  33  35 0
 6-311+G(2d,p)
 ****
 37  38 0
 6-311+G(2d,p)
 ****
 1  2  3  4  5  17  18  19  20  21  22  23  24  25 0
 3-21G
 ****
 27  28  29  34  36  39  40  41  42  43  44  45  46 0
 3-21G
 ****


