%nproc=1
%NoSave
%Mem=1900MB
#P OB98/GEN NMR

erre ene a

0 1
  C      263.484    -118.152     153.725
  O      263.933    -117.215     152.759
  P      264.244    -117.653     151.244
  C      266.801    -117.791     151.604
  O      265.606    -118.495     151.317
  C      267.903    -118.192     150.621
  O      269.165    -117.649     151.092
  C      268.083    -119.705     150.455
  O      268.450    -119.943     149.088
  C      269.243    -120.013     151.380
  O      269.907    -121.224     151.045
  C      270.093    -118.748     151.210
  N      271.018    -118.541     152.319
  C      272.048    -119.466     152.489
  O      272.158    -120.436     151.740
  N      272.946    -119.272     153.511
  C      272.775    -118.293     154.343
  N      273.722    -118.107     155.300
  C      271.637    -117.355     154.264
  C      270.824    -117.523     153.227
  O      264.252    -116.535     150.259
  O      263.168    -118.789     150.934
  H      270.503    -121.049     150.292
  H      262.298    -118.427     150.629
  H      271.524    -116.570     154.997
  H      269.975    -116.869     153.075
  H      270.650    -118.792     150.268
  H      268.874    -120.106     152.409
  H      267.174    -120.267     150.686
  H      267.690    -117.721     149.651
  H      274.573    -118.656     155.214
  H      267.124    -118.050     152.616
  H      273.836    -117.208     155.759
  H      266.614    -116.711     151.567
  P      267.319    -120.468     148.076
  C      268.150    -122.926     148.023
  O      267.104    -122.036     148.342
  O      268.110    -120.472     146.679
  O      266.089    -119.627     147.959
  H      267.470    -120.378     145.952
  H      267.830    -123.944     148.274
  H      269.045    -122.692     148.601
  H      268.374    -122.887     146.954
  H      263.338    -117.656     154.662
  H      264.216    -118.924     153.840
  H      262.559    -118.583     153.401

 3  4  5  6  7  8  9  10  11  12  13  23  27  28  29  30  32 0
 6-311+G(2d,p)
 ****
 34  35 0
 6-311+G(2d,p)
 ****
 1  2  14  15  16  17  18  19  20  21  22  24  25  26 0
 3-21G
 ****
 31  33  36  37  38  39  40  41  42  43  44  45  46 0
 3-21G
 ****


