%nproc=1
%NoSave
%Mem=1900MB
#P OB98/GEN NMR

erre ene a

0 1
  C        0.316      18.503      -0.243
  O        0.979      19.738      -0.394
  P        1.234      20.704       0.857
  C        0.163      22.899       1.674
  O       -0.030      21.693       0.943
  C       -0.691      24.024       1.078
  O       -0.234      24.284      -0.286
  C       -2.190      23.668       1.015
  O       -3.052      24.638       1.610
  C       -2.412      23.418      -0.468
  O       -3.763      23.530      -0.873
  C       -1.416      24.395      -1.101
  N       -1.155      24.095      -2.507
  C       -1.668      24.980      -3.450
  O       -2.311      25.989      -3.178
  N       -1.475      24.638      -4.759
  C       -0.936      23.471      -5.211
  O       -0.883      23.186      -6.399
  C       -0.446      22.557      -4.167
  C       -0.553      22.912      -2.885
  O        2.556      21.395       0.871
  O        0.988      19.741       2.113
  H       -4.132      24.337      -0.469
  H        0.100      19.348       2.160
  H       -1.842      25.270      -5.453
  H       -0.023      21.619      -4.495
  H       -0.201      22.259      -2.094
  H       -1.766      25.425      -1.028
  H       -2.099      22.389      -0.684
  H       -2.399      22.749       1.574
  H       -0.524      24.923       1.677
  H        1.216      23.181       1.616
  H       -0.077      22.736       2.730
  P       -4.528      24.344       2.155
  C       -6.919      24.209       1.143
  O       -5.544      24.446       0.924
  O       -4.924      25.119       3.366
  O       -4.502      22.775       2.473
  H       -5.126      22.579       3.197
  H       -7.359      23.823       0.220
  H       -7.410      25.152       1.397
  H       -7.080      23.483       1.944
  H        0.249      18.016      -1.193
  H       -0.668      18.671       0.142
  H        0.864      17.885       0.437

 3  4  5  6  7  8  9  10  11  12  13  23  28  29  30  31  32 0
 6-311+G(2d,p)
 ****
 33  34 0
 6-311+G(2d,p)
 ****
 1  2  14  15  16  17  18  19  20  21  22  24  25  26  27 0
 3-21G
 ****
 35  36  37  38  39  40  41  42  43  44  45 0
 3-21G
 ****


