%nproc=1
%NoSave
%Mem=1900MB
#P OB98/GEN NMR

erre ene a

0 1
  C      159.247      45.087     -44.981
  O      159.395      43.862     -45.671
  H      158.949      45.872     -45.679
  H      158.465      44.971     -44.225
  H      160.180      45.364     -44.483
  P      160.613      43.760     -46.709
  C      159.774      45.667     -48.263
  O      160.766      45.227     -47.347
  C      160.426      46.236     -49.523
  O      159.382      46.675     -50.432
  C      161.339      47.435     -49.251
  O      162.480      47.351     -50.108
  C      160.484      48.628     -49.644
  O      161.268      49.758     -50.005
  C      159.658      48.044     -50.785
  N      157.596      52.226     -52.864
  C      158.842      51.712     -52.919
  N      159.309      50.586     -52.339
  C      158.323      49.946     -51.686
  C      157.006      50.347     -51.542
  C      156.649      51.556     -52.163
  N      155.392      52.107     -52.082
  N      156.307      49.442     -50.767
  C      157.187      48.512     -50.453
  N      158.419      48.776     -50.982
  O      159.976      42.896     -47.900
  O      161.867      43.149     -46.182
  H      161.851      49.502     -50.750
  H      159.987      41.952     -47.657
  H      159.562      52.283     -53.498
  H      156.988      47.641     -49.844
  H      160.196      48.055     -51.742
  H      159.840      48.913     -48.802
  H      161.668      47.489     -48.212
  H      160.969      45.430     -50.031
  H      159.167      46.442     -47.784
  H      155.238      53.005     -52.510
  H      154.691      51.653     -51.513
  H      159.129      44.822     -48.529
  P      163.856      46.874     -49.434
  C      164.938      49.205     -49.103
  O      164.396      48.048     -48.483
  O      164.887      46.870     -50.658
  O      163.770      45.527     -48.791
  H      165.369      46.024     -50.685
  H      165.255      49.897     -48.351
  H      164.191      49.663     -49.717
  H      165.776      48.926     -49.708

 6  7  8  9  10  11  12  13  14  15  25  28  32  33  34  35 0
 6-311+G(2d,p)
 ****
 36  39  40 0
 6-311+G(2d,p)
 ****
 1  2  3  4  5  16  17  18  19  20  21  22  23  24 0
 3-21G
 ****
 26  27  29  30  31  37  38  41  42  43  44  45  46  47 0
 3-21G
 ****
 48 0
 3-21G
 ****


