%nproc=1
%NoSave
%Mem=1900MB
#P OB98/GEN NMR

erre ene a

0 1
  C     -400.941    -214.347     799.178
  O     -401.609    -214.518     800.426
  P     -403.214    -214.508     800.406
  C     -403.449    -211.924     800.149
  O     -403.676    -213.070     800.961
  C     -404.087    -210.692     800.802
  O     -405.520    -210.835     800.838
  C     -403.658    -210.453     802.249
  O     -402.350    -209.904     802.320
  C     -404.768    -209.505     802.710
  O     -404.507    -208.180     802.244
  C     -406.006    -210.090     801.983
  N     -409.551    -210.330     805.699
  C     -408.946    -209.275     805.087
  N     -407.995    -209.296     804.116
  C     -407.676    -210.556     803.785
  C     -408.188    -211.733     804.332
  C     -409.175    -211.581     805.334
  N     -409.782    -212.657     805.940
  N     -407.607    -212.842     803.757
  C     -406.765    -212.349     802.866
  N     -406.780    -210.982     802.830
  O     -403.597    -215.504     801.591
  O     -403.828    -214.912     799.104
  H     -403.650    -207.891     802.635
  H     -404.413    -215.994     801.374
  H     -409.271    -208.288     805.414
  H     -406.124    -212.947     802.227
  H     -406.692    -209.316     801.620
  H     -404.868    -209.472     803.802
  H     -403.712    -211.386     802.823
  H     -403.841    -209.811     800.184
  H     -403.903    -212.071     799.169
  H     -410.356    -212.463     806.745
  H     -409.402    -213.577     805.774
  H     -402.373    -211.780     800.016
  P     -401.135    -210.943     802.488
  C     -401.458    -211.117     805.036
  O     -400.609    -210.682     803.984
  O     -399.993    -210.260     801.597
  O     -401.461    -212.364     802.141
  H     -399.908    -209.324     801.806
  H     -400.974    -210.917     805.986
  H     -401.677    -212.173     804.950
  H     -402.416    -210.540     805.007
  H     -399.883    -214.373     799.333
  H     -401.216    -213.404     798.753
  H     -401.223    -215.135     798.511

 3  4  5  6  7  8  9  10  11  12  22  25  29  30  31  32 0
 6-311+G(2d,p)
 ****
 33  36  37 0
 6-311+G(2d,p)
 ****
 1  2  13  14  15  16  17  18  19  20  21  23  24  26 0
 3-21G
 ****
 27  28  34  35  38  39  40  41  42  43  44  45  46  47  48 0
 3-21G
 ****


