%nproc=1
%NoSave
%Mem=1900MB
#P OB98/GEN NMR

erre ene a

0 1
  C     -521.288    -154.698    -113.811
  O     -522.182    -155.787    -113.717
  H     -520.342    -155.060    -114.222
  H     -521.098    -154.277    -112.820
  H     -521.684    -153.923    -114.472
  P     -523.703    -155.500    -113.297
  C     -524.940    -154.774    -111.156
  O     -523.678    -154.981    -111.781
  C     -525.224    -155.908    -110.176
  O     -524.324    -155.824    -109.048
  C     -526.626    -155.870    -109.580
  O     -527.597    -156.313    -110.506
  C     -526.443    -156.759    -108.362
  O     -526.531    -158.145    -108.715
  C     -525.007    -156.403    -107.913
  N     -525.002    -155.488    -106.772
  C     -524.379    -155.949    -105.618
  O     -523.845    -157.053    -105.528
  N     -524.444    -155.116    -104.533
  C     -525.173    -153.962    -104.459
  O     -525.405    -153.381    -103.403
  C     -525.756    -153.495    -105.723
  C     -525.658    -154.272    -106.804
  O     -524.668    -156.603    -113.575
  O     -524.076    -154.176    -114.120
  H     -524.613    -154.423    -114.897
  H     -527.488    -158.355    -108.736
  H     -524.029    -155.463    -103.679
  H     -526.280    -152.548    -105.721
  H     -526.109    -153.965    -107.742
  H     -524.456    -157.309    -107.638
  H     -527.199    -156.560    -107.602
  H     -526.857    -154.853    -109.245
  H     -525.042    -156.863    -110.687
  H     -525.716    -154.758    -111.928
  H     -524.928    -153.808    -110.641
  P     -529.151    -156.028    -110.246
  C     -530.768    -156.230    -108.260
  O     -529.558    -156.697    -108.846
  O     -530.058    -156.358    -111.384
  O     -529.206    -154.461    -109.916
  H     -529.897    -154.048    -110.470
  H     -530.938    -156.742    -107.336
  H     -531.583    -156.418    -108.927
  H     -530.693    -155.179    -108.076

 6  7  8  9  10  11  12  13  14  15  16  27  31  32  33  34  35 0
 6-311+G(2d,p)
 ****
 36  37 0
 6-311+G(2d,p)
 ****
 1  2  3  4  5  17  18  19  20  21  22  23  24  25 0
 3-21G
 ****
 26  28  29  30  38  39  40  41  42  43  44  45 0
 3-21G
 ****


