%nproc=1
%NoSave
%Mem=1900MB
#P OB98/GEN NMR

erre ene a

0 1
  C      -35.646     120.253     -31.072
  O      -37.037     120.218     -31.406
  P      -37.821     121.623     -31.375
  C      -40.041     120.754     -30.330
  O      -39.390     121.299     -31.471
  C      -41.094     119.731     -30.747
  O      -40.539     118.405     -30.795
  C      -42.279     119.630     -29.795
  O      -43.215     120.675     -30.008
  C      -42.869     118.286     -30.201
  O      -43.709     118.450     -31.357
  C      -41.618     117.468     -30.557
  N      -42.595     113.067     -28.239
  C      -43.246     113.676     -29.294
  N      -44.291     113.002     -29.824
  N      -42.906     114.838     -29.785
  C      -41.824     115.382     -29.176
  C      -41.097     114.878     -28.123
  C      -41.504     113.606     -27.568
  O      -40.983     113.038     -26.614
  N      -40.062     115.712     -27.784
  C      -40.145     116.704     -28.647
  N      -41.209     116.557     -29.505
  O      -37.486     122.250     -32.810
  O      -37.408     122.523     -30.259
  H      -44.452     119.029     -31.093
  H      -37.533     123.224     -32.768
  H      -42.905     112.175     -27.896
  H      -39.465     117.545     -28.697
  H      -41.757     116.891     -31.477
  H      -43.491     117.844     -29.417
  H      -44.563     112.073     -29.544
  H      -41.941     119.588     -28.753
  H      -44.758     113.418     -30.623
  H      -41.448     119.997     -31.754
  H      -40.517     121.553     -29.759
  H      -39.290     120.299     -29.676
  P      -43.687     121.510     -28.721
  C      -46.092     121.593     -29.690
  O      -44.989     122.318     -29.187
  O      -42.558     122.635     -28.584
  O      -43.826     120.699     -27.476
  H      -42.463     122.906     -27.651
  H      -46.291     120.703     -29.085
  H      -45.899     121.297     -30.724
  H      -46.977     122.236     -29.666
  H      -35.241     119.264     -31.128
  H      -35.527     120.631     -30.078
  H      -35.130     120.890     -31.760

 3  4  5  6  7  8  9  10  11  12  23  26  30  31  33  0
 6-311+G(2d,p)
 ****
 35  36  37  38 0
 6-311+G(2d,p)
 ****
 1  2  13  14  15  16  17  18  19  20  21  22  24  25  27  28  29 0
 3-21G
 ****
 32  34  39  40  41  42  43  44  45  46  47  48  49 0
 3-21G
 ****


