%nproc=1
%NoSave
%Mem=1900MB
#P OB98/GEN NMR

erre ene a

0 1
  C       25.546     -55.407     221.094
  O       25.358     -56.403     220.113
  P       26.590     -56.989     219.275
  C       25.916     -55.383     217.378
  O       26.266     -56.718     217.724
  C       26.279     -55.100     215.916
  O       25.862     -53.738     215.586
  C       27.792     -55.211     215.642
  O       28.135     -56.069     214.554
  C       28.211     -53.758     215.485
  O       29.426     -53.583     214.780
  C       26.955     -53.137     214.865
  N       26.949     -51.679     214.955
  C       26.675     -50.973     213.788
  O       26.434     -51.492     212.702
  N       26.749     -49.611     213.881
  C       27.170     -48.904     214.966
  O       27.307     -47.689     214.949
  C       27.483     -49.707     216.159
  C       27.339     -51.033     216.110
  O       26.962     -58.400     219.587
  O       27.758     -55.931     219.560
  H       29.487     -52.646     214.514
  H       27.560     -55.019     219.285
  H       26.554     -49.087     213.042
  H       27.831     -49.174     217.033
  H       27.561     -51.650     216.974
  H       26.847     -53.418     213.817
  H       28.365     -53.344     216.490
  H       28.316     -55.650     216.500
  H       25.713     -55.796     215.290
  H       26.468     -54.695     218.023
  H       24.848     -55.219     217.560
  P       29.109     -57.335     214.654
  C       31.088     -55.686     214.302
  O       30.511     -56.938     213.992
  O       28.529     -58.624     214.176
  O       29.456     -57.416     216.215
  H       29.637     -58.342     216.461
  H       31.700     -55.364     213.455
  H       31.735     -55.794     215.177
  H       30.327     -54.928     214.499
  H       24.603     -55.156     221.533
  H       25.971     -54.536     220.641
  H       26.206     -55.773     221.852

 3  4  5  6  7  8  9  10  11  12  13  23  28  29  30  31  32 0
 6-311+G(2d,p)
 ****
 33  34 0
 6-311+G(2d,p)
 ****
 1  2  14  15  16  17  18  19  20  21  22  24  25  26  27 0
 3-21G
 ****
 35  36  37  38  39  40  41  42  43  44  45 0
 3-21G
 ****


