%nproc=1
%NoSave
%Mem=1900MB
#P OB98/GEN NMR

erre ene a

0 1
  C     -282.769     166.999     131.703
  O     -283.352     166.011     132.525
  H     -283.537     167.396     131.035
  H     -281.971     166.553     131.100
  H     -282.362     167.821     132.298
  P     -282.557     165.523     133.826
  C     -280.682     163.989     132.934
  O     -281.031     165.288     133.389
  C     -279.246     163.959     132.397
  O     -279.083     164.987     131.388
  C     -278.249     164.278     133.515
  O     -276.982     163.660     133.298
  C     -278.094     165.788     133.412
  O     -276.886     166.265     133.993
  C     -278.180     165.985     131.897
  N     -277.414     170.053     128.921
  C     -276.619     168.938     129.099
  N     -275.456     168.916     128.412
  N     -276.926     167.948     129.897
  C     -278.084     168.140     130.576
  C     -278.945     169.212     130.503
  C     -278.609     170.286     129.590
  O     -279.270     171.308     129.408
  N     -280.008     169.063     131.360
  C     -279.788     167.907     131.957
  N     -278.639     167.299     131.503
  O     -283.086     164.027     134.056
  O     -282.742     166.363     135.053
  H     -276.146     165.798     133.559
  H     -282.988     163.770     134.990
  H     -277.137     170.783     128.288
  H     -280.423     167.461     132.711
  H     -277.201     165.825     131.431
  H     -278.923     166.256     133.950
  H     -275.094     169.725     127.935
  H     -278.627     163.979     134.499
  H     -274.736     168.266     128.749
  H     -279.044     162.998     131.911
  H     -281.385     163.726     132.135
  H     -280.810     163.260     133.738
  P     -276.576     162.445     134.261
  C     -274.548     163.630     135.431
  O     -275.839     163.060     135.548
  O     -275.407     161.702     133.457
  O     -277.708     161.525     134.582
  H     -275.744     160.871     133.068
  H     -274.226     163.983     136.388
  H     -274.580     164.448     134.742
  H     -273.862     162.890     135.075

 6  7  8  9  10  11  12  13  14  15  26  29  33  34 0
 6-311+G(2d,p)
 ****
 36  38  39  40  41 0
 6-311+G(2d,p)
 ****
 1  2  3  4  5  16  17  18  19  20  21  22  23  24  25 0
 3-21G
 ****
 27  28  30  31  32  35  37  42  43  44  45  46  47 0
 3-21G
 ****
 48  49 0
 3-21G
 ****


