%nproc=1
%NoSave
%Mem=1900MB
#P OB98/GEN NMR

erre ene a

0 1
  C     -109.944    -418.700    -395.733
  O     -109.322    -417.747    -396.607
  P     -110.209    -417.258    -397.858
  C     -109.636    -419.286    -399.388
  O     -110.649    -418.564    -398.693
  C     -110.269    -420.338    -400.309
  O     -110.765    -421.477    -399.595
  C     -111.454    -419.797    -401.109
  O     -110.982    -419.053    -402.216
  C     -112.163    -421.086    -401.515
  O     -111.565    -421.663    -402.698
  C     -111.918    -422.001    -400.302
  N     -116.391    -424.239    -399.415
  C     -115.596    -424.264    -400.548
  N     -116.028    -425.021    -401.573
  N     -114.462    -423.620    -400.655
  C     -114.141    -422.904    -399.553
  C     -114.840    -422.821    -398.359
  C     -116.092    -423.535    -398.258
  O     -116.820    -423.564    -397.275
  N     -114.168    -422.041    -397.437
  C     -113.137    -421.575    -398.115
  N     -113.038    -422.110    -399.380
  O     -109.141    -416.538    -398.806
  O     -111.326    -416.342    -397.479
  H     -111.965    -421.253    -403.486
  H     -109.297    -415.574    -398.811
  H     -117.258    -424.739    -399.398
  H     -112.423    -420.857    -397.736
  H     -111.680    -423.028    -400.611
  H     -113.209    -420.918    -401.746
  H     -116.897    -425.552    -401.565
  H     -112.102    -419.202    -400.467
  H     -115.453    -425.068    -402.413
  H     -109.478    -420.687    -401.006
  H     -108.975    -419.779    -398.671
  H     -109.022    -418.585    -399.948
  P     -110.692    -417.485    -402.001
  C     -112.493    -416.386    -403.511
  O     -112.085    -416.709    -402.201
  O     -109.833    -417.087    -403.288
  O     -109.961    -417.167    -400.741
  H     -109.085    -416.530    -403.022
  H     -113.590    -416.362    -403.535
  H     -112.134    -417.110    -404.240
  H     -112.112    -415.393    -403.778
  H     -109.269    -418.953    -394.942
  H     -110.192    -419.582    -396.286
  H     -110.835    -418.276    -395.319

 3  4  5  6  7  8  9  10  11  12  23  26  30  31 0
 6-311+G(2d,p)
 ****
 33  35  36  37  38 0
 6-311+G(2d,p)
 ****
 1  2  13  14  15  16  17  18  19  20  21  22  24  25 0
 3-21G
 ****
 27  28  29  32  34  39  40  41  42  43  44  45  46  47  48  49 0
 3-21G
 ****


