%nproc=1
%NoSave
%Mem=1900MB
#P OB98/GEN NMR

erre ene a

0 1
  C       79.205     -51.834      12.491
  O       78.424     -52.730      13.257
  H       78.554     -51.330      11.772
  H       79.974     -52.386      11.944
  H       79.669     -51.084      13.137
  P       79.154     -53.441      14.501
  C       80.542     -55.161      13.087
  O       80.533     -54.012      13.916
  C       81.354     -56.283      13.737
  O       81.407     -57.407      12.825
  C       82.791     -55.889      14.077
  O       83.157     -56.519      15.306
  C       83.600     -56.474      12.933
  O       84.960     -56.696      13.302
  C       82.792     -57.735      12.597
  N       83.014     -58.188      11.226
  C       84.329     -58.139      10.752
  O       85.231     -57.710      11.472
  N       84.585     -58.535       9.464
  C       83.604     -58.883       8.690
  N       83.921     -59.244       7.418
  C       82.196     -58.898       9.131
  C       81.977     -58.553      10.399
  O       78.252     -54.747      14.702
  O       79.278     -52.579      15.711
  H       85.301     -55.870      13.713
  H       77.990     -55.170      13.868
  H       81.411     -59.181       8.444
  H       80.973     -58.545      10.808
  H       83.057     -58.554      13.278
  H       83.593     -55.783      12.080
  H       82.937     -54.812      14.161
  H       80.816     -56.627      14.628
  H       84.896     -59.201       7.149
  H       80.972     -54.922      12.110
  H       83.235     -59.481       6.717
  H       79.506     -55.480      12.938
  P       82.857     -55.771      16.690
  C       84.701     -53.974      16.541
  O       83.306     -54.235      16.560
  O       83.333     -56.466      17.921
  O       81.253     -55.656      16.692
  H       80.943     -55.806      17.606
  H       84.866     -52.921      16.452
  H       85.147     -54.477      15.708
  H       85.143     -54.328      17.449

 6  7  8  9  10  11  12  13  14  15  16  26  30  31  32  33  35 0
 6-311+G(2d,p)
 ****
 37  38 0
 6-311+G(2d,p)
 ****
 1  2  3  4  5  17  18  19  20  21  22  23  24  25 0
 3-21G
 ****
 27  28  29  34  36  39  40  41  42  43  44  45  46 0
 3-21G
 ****


