%nproc=1
%NoSave
%Mem=1900MB
#P OB98/GEN NMR

erre ene a

0 1
  C      273.170      13.588     228.902
  O      271.909      13.219     229.426
  H      273.035      13.934     227.874
  H      273.842      12.725     228.902
  H      273.603      14.397     229.495
  P      271.890      12.696     230.942
  C      270.705      14.881     231.728
  O      271.817      14.007     231.863
  C      270.924      16.157     232.551
  O      272.000      16.930     231.936
  C      269.696      17.078     232.609
  O      269.751      17.806     233.850
  C      269.962      18.026     231.452
  O      269.125      19.156     231.519
  C      271.462      18.239     231.640
  N      274.514      21.995     229.986
  C      274.088      21.659     231.228
  N      273.288      20.639     231.589
  C      272.931      19.907     230.519
  C      273.291      20.120     229.197
  C      274.119      21.228     228.944
  N      274.545      21.578     227.682
  N      272.728      19.160     228.376
  C      272.041      18.381     229.190
  N      272.130      18.800     230.489
  O      273.381      12.158     231.162
  O      270.870      11.652     231.250
  H      268.190      18.908     231.347
  H      273.416      11.195     231.005
  H      274.438      22.300     232.031
  H      271.459      17.516     228.894
  H      271.677      18.887     232.498
  H      269.756      17.538     230.494
  H      268.747      16.541     232.545
  H      271.269      15.881     233.555
  H      269.810      14.360     232.084
  H      270.576      15.146     230.674
  H      275.125      22.395     227.581
  H      274.246      21.025     226.891
  P      269.018      17.198     235.147
  C      271.219      16.475     236.362
  O      269.970      16.087     235.804
  O      267.867      16.295     234.485
  O      268.430      18.201     236.088
  H      267.109      16.232     235.099
  H      271.718      15.613     236.753
  H      271.054      17.179     237.150
  H      271.825      16.925     235.603

 6  7  8  9  10  11  12  13  14  15  25  28  32  33  34  35 0
 6-311+G(2d,p)
 ****
 36  37  40 0
 6-311+G(2d,p)
 ****
 1  2  3  4  5  16  17  18  19  20  21  22  23  24 0
 3-21G
 ****
 26  27  29  30  31  38  39 41  42  43  44  45  46  47  48 0
 3-21G
 ****


