%nproc=1
%NoSave
%Mem=1900MB
#P OB98/GEN NMR

erre ene a

0 1
  C       90.186    -396.061    -118.505
  O       90.553    -396.545    -119.794
  P       89.749    -397.818    -120.363
  C       89.150    -400.127    -119.344
  O       90.017    -399.001    -119.309
  C       89.246    -400.914    -118.042
  O       88.988    -400.040    -116.930
  C       88.229    -402.043    -117.916
  O       88.644    -403.210    -118.608
  C       88.235    -402.267    -116.408
  O       89.354    -403.101    -116.048
  C       88.429    -400.843    -115.859
  N       85.075    -400.491    -112.080
  C       86.244    -401.228    -112.166
  N       86.572    -401.959    -111.077
  N       87.011    -401.257    -113.223
  C       86.576    -400.452    -114.220
  C       85.438    -399.665    -114.248
  C       84.570    -399.688    -113.091
  O       83.493    -399.104    -112.990
  N       85.345    -398.974    -115.430
  C       86.435    -399.304    -116.095
  N       87.200    -400.216    -115.412
  O       90.617    -398.251    -121.634
  O       88.327    -397.559    -120.721
  H       89.329    -403.206    -115.072
  H       90.059    -398.731    -122.269
  H       84.533    -400.493    -111.234
  H       86.707    -398.907    -117.066
  H       89.148    -400.831    -115.035
  H       87.329    -402.775    -116.049
  H       86.095    -401.878    -110.191
  H       87.231    -401.717    -118.232
  H       87.443    -402.475    -111.106
  H       90.265    -401.304    -117.949
  H       89.445    -400.779    -120.175
  H       88.127    -399.785    -119.519
  P       87.507    -404.306    -118.903
  C       85.862    -405.349    -117.183
  O       87.193    -404.984    -117.483
  O       88.294    -405.445    -119.709
  O       86.332    -403.791    -119.664
  H       87.679    -405.944    -120.280
  H       85.336    -405.716    -118.069
  H       85.328    -404.484    -116.779
  H       85.877    -406.138    -116.429
  H       90.796    -395.219    -118.253
  H       90.329    -396.834    -117.780
  H       89.157    -395.766    -118.514

 3  4  5  6  7  8  9  10  11  12  23  26  30  31  33  0
 6-311+G(2d,p)
 ****
 35  36  37  38 0
 6-311+G(2d,p)
 ****
 1  2  13  14  15  16  17  18  19  20  21  22  24  25  27  28  29 0
 3-21G
 ****
 32  34  39  40  41  42  43  44  45  46  47  48  49 0
 3-21G
 ****


