%nproc=1
%NoSave
%Mem=1900MB
#P OB98/GEN NMR

erre ene a

0 1
  C     -185.254     340.909     -83.283
  O     -186.123     340.018     -83.963
  P     -185.859     339.779     -85.529
  C     -185.479     337.202     -85.592
  O     -184.888     338.500     -85.638
  C     -185.837     336.709     -86.997
  O     -184.614     336.508     -87.751
  C     -186.622     335.394     -87.016
  O     -187.577     335.465     -88.079
  C     -185.573     334.353     -87.356
  O     -186.149     333.195     -87.958
  C     -184.643     335.165     -88.279
  N     -183.301     334.589     -88.352
  C     -182.987     333.853     -89.502
  O     -183.852     333.645     -90.354
  N     -181.725     333.324     -89.629
  C     -180.885     333.433     -88.646
  N     -179.643     332.902     -88.820
  C     -181.215     334.097     -87.370
  C     -182.417     334.663     -87.299
  O     -184.908     341.002     -85.923
  O     -187.096     339.729     -86.367
  H     -186.863     332.864     -87.365
  H     -185.060     341.281     -86.843
  H     -180.486     334.127     -86.567
  H     -182.739     335.196     -86.407
  H     -185.055     335.216     -89.295
  H     -185.039     334.047     -86.450
  H     -187.140     335.197     -86.073
  H     -186.408     337.499     -87.505
  H     -179.447     332.435     -89.702
  H     -186.404     337.257     -85.007
  H     -178.922     332.931     -88.110
  H     -184.801     336.509     -85.100
  P     -188.945     334.648     -87.914
  C     -190.370     336.762     -87.611
  O     -189.878     335.587     -87.005
  O     -188.513     333.507     -86.865
  O     -189.566     334.052     -89.132
  H     -189.259     332.895     -86.724
  H     -191.090     337.233     -86.930
  H     -190.876     336.527     -88.550
  H     -189.554     337.470     -87.786
  H     -185.543     340.974     -82.255
  H     -185.314     341.878     -83.732
  H     -184.249     340.547     -83.349

 3  4  5  6  7  8  9  10  11  12  13  21  23  27  28  29  30  32 0
 6-311+G(2d,p)
 ****
 34  35 0
 6-311+G(2d,p)
 ****
 1  2  14  15  16  17  18  19  20  22  24  25  26 0
 3-21G
 ****
 31  33  36  37  38  39  40  41  42  43  44  45  46 0
 3-21G
 ****


