%nproc=1
%NoSave
%Mem=1900MB
#P OB98/GEN NMR

erre ene a

0 1
  C        4.468    -463.707    -124.668
  O        4.135    -462.376    -124.986
  P        4.835    -461.104    -124.334
  C        5.977    -460.389    -126.579
  O        6.133    -460.731    -125.205
  C        7.019    -459.350    -127.008
  O        6.813    -458.143    -126.231
  C        8.454    -459.832    -126.720
  O        9.383    -459.537    -127.758
  C        8.734    -459.247    -125.342
  O       10.116    -459.157    -125.035
  C        7.975    -457.923    -125.405
  N        8.735    -454.421    -121.799
  C        9.227    -454.461    -123.089
  N       10.192    -453.560    -123.382
  N        8.843    -455.340    -123.984
  C        7.965    -456.247    -123.505
  C        7.401    -456.305    -122.248
  C        7.806    -455.311    -121.286
  O        7.483    -455.302    -120.102
  N        6.600    -457.408    -122.104
  C        6.703    -458.042    -123.250
  N        7.550    -457.390    -124.126
  O        4.967    -461.100    -122.844
  O        3.806    -459.924    -124.738
  H       10.481    -460.063    -125.037
  H        3.814    -459.277    -124.005
  H        9.131    -453.767    -121.132
  H        6.222    -458.977    -123.495
  H        8.577    -457.139    -125.869
  H        8.286    -459.919    -124.600
  H       10.606    -452.970    -122.682
  H        8.483    -460.923    -126.655
  H       10.741    -453.729    -124.228
  H        6.867    -459.100    -128.063
  H        4.966    -459.981    -126.680
  H        6.040    -461.287    -127.205
  P       10.396    -460.522    -128.498
  C        8.941    -460.852    -130.593
  O        9.550    -461.474    -129.478
  O       10.898    -461.531    -127.368
  O       11.559    -459.848    -129.145
  H       11.852    -461.717    -127.494
  H        8.198    -461.537    -131.004
  H        9.696    -460.641    -131.350
  H        8.449    -459.921    -130.287
  H        3.857    -464.374    -125.239
  H        4.302    -463.877    -123.625
  H        5.498    -463.882    -124.899

 3  4  5  6  7  8  9  10  11  12  23  26  30  31 0
 6-311+G(2d,p)
 ****
 33  35  36  37  38 0
 6-311+G(2d,p)
 ****
 1  2  13  14  15  16  17  18  19  20  21  22  24  25 0
 3-21G
 ****
 27  28  29  32  34  39  40  41  42  43  44  45  46  47  48  49 0
 3-21G
 ****


