%nproc=1
%NoSave
%Mem=1900MB
#P OB98/GEN NMR

erre ene a

0 1
  C      360.849    -894.690     325.579
  O      361.371    -894.950     326.866
  H      359.764    -894.540     325.666
  H      361.036    -895.540     324.924
  H      361.294    -893.780     325.155
  P      362.958    -894.810     327.050
  C      363.562    -893.450     329.179
  O      363.209    -893.410     327.811
  C      362.329    -893.210     330.055
  O      361.366    -894.270     329.810
  C      362.618    -893.180     331.566
  O      361.779    -892.200     332.189
  C      362.150    -894.560     332.018
  O      361.837    -894.590     333.406
  C      360.957    -894.780     331.093
  N      357.286    -897.970     332.327
  C      357.311    -896.580     332.335
  N      356.210    -895.940     332.801
  N      358.324    -895.870     331.921
  C      359.355    -896.640     331.473
  C      359.459    -898.010     331.419
  C      358.325    -898.770     331.895
  O      358.246    -900.000     331.936
  N      360.690    -898.400     330.949
  C      361.344    -897.260     330.742
  N      360.579    -896.170     331.046
  O      363.468    -894.530     325.556
  O      363.637    -895.990     327.656
  H      361.441    -895.460     333.612
  H      363.743    -895.370     325.139
  H      356.474    -898.450     332.674
  H      362.367    -897.180     330.387
  H      360.081    -894.210     331.427
  H      362.940    -895.300     331.828
  H      355.370    -896.410     333.105
  H      363.665    -892.980     331.816
  H      356.208    -894.930     332.768
  H      361.854    -892.260     329.737
  H      364.299    -892.670     329.390
  H      364.003    -894.430     329.416
  P      362.172    -890.650     332.013
  C      360.167    -889.310     331.017
  O      361.356    -890.060     330.763
  O      363.678    -890.730     331.474
  O      362.080    -889.860     333.280
  H      364.187    -889.970     331.816
  H      359.743    -888.989     330.089
  H      360.405    -888.455     331.615
  H      359.462    -889.924     331.537

 6  7  8  9  10  11  12  13  14  15  26  29  33  34 0
 6-311+G(2d,p)
 ****
 36  38  39  40  41 0
 6-311+G(2d,p)
 ****
 1  2  3  4  5  16  17  18  19  20  21  22  23  24  25 0
 3-21G
 ****
 27  28  30  31  32  35  37  42  43  44  45  46  47 0
 3-21G
 ****
 48  49 0
 3-21G
 ****


