%nproc=1
%NoSave
%Mem=1900MB
#P OB98/GEN NMR

erre ene a

0 1
  C       -5.405    -139.119    -555.004
  O       -6.649    -139.678    -555.362
  H       -5.549    -138.502    -554.110
  H       -5.022    -138.482    -555.802
  H       -4.684    -139.908    -554.774
  P       -6.775    -140.478    -556.752
  C       -7.482    -139.796    -559.122
  O       -7.554    -139.466    -557.740
  C       -8.628    -139.152    -559.912
  O       -9.901    -139.655    -559.426
  C       -8.671    -137.618    -559.801
  O       -8.849    -137.057    -561.105
  C       -9.892    -137.351    -558.933
  O      -10.430    -136.050    -559.149
  C      -10.795    -138.530    -559.324
  N      -11.861    -138.772    -558.359
  C      -12.944    -137.887    -558.388
  O      -12.947    -136.939    -559.174
  N      -13.978    -138.074    -557.505
  C      -13.916    -139.024    -556.627
  N      -14.966    -139.152    -555.775
  C      -12.765    -139.960    -556.528
  C      -11.789    -139.781    -557.424
  O       -7.382    -141.834    -556.640
  O       -5.288    -140.484    -557.346
  H       -9.731    -135.385    -558.928
  H       -5.208    -141.208    -558.016
  H      -12.760    -140.731    -555.777
  H      -10.919    -140.418    -557.431
  H      -11.248    -138.362    -560.310
  H       -9.608    -137.433    -557.874
  H       -7.769    -137.194    -559.366
  H       -8.554    -139.473    -560.959
  H      -15.730    -138.491    -555.874
  H       -7.519    -140.889    -559.222
  H      -15.022    -139.854    -555.050
  H       -6.529    -139.429    -559.516
  P       -7.731    -136.006    -561.585
  C       -7.291    -133.478    -561.197
  O       -8.253    -134.531    -561.202
  O       -7.855    -136.049    -563.183
  O       -6.356    -136.341    -561.118
  H       -7.145    -136.605    -563.555
  H       -7.769    -132.559    -560.928
  H       -6.860    -133.384    -562.172
  H       -6.522    -133.701    -560.488

 6  7  8  9  10  11  12  13  14  15  16  26  30  31  32  33  35 0
 6-311+G(2d,p)
 ****
 37  38 0
 6-311+G(2d,p)
 ****
 1  2  3  4  5  17  18  19  20  21  22  23  24  25 0
 3-21G
 ****
 27  28  29  34  36  39  40  41  42  43  44  45  46 0
 3-21G
 ****


