%nproc=1
%NoSave
%Mem=1900MB
#P OB98/GEN NMR

erre ene a

0 1
  C     -311.950    -330.338     416.789
  O     -312.834    -331.226     417.440
  H     -311.148    -330.918     416.326
  H     -311.510    -329.650     417.514
  H     -312.466    -329.772     416.007
  P     -314.239    -330.668     417.971
  C     -315.850    -332.658     417.644
  O     -315.044    -331.930     418.558
  C     -315.029    -333.741     416.940
  O     -314.393    -334.578     417.955
  C     -315.858    -334.669     416.034
  O     -315.018    -335.074     414.944
  C     -316.124    -335.833     416.976
  O     -316.598    -336.963     416.291
  C     -314.756    -335.941     417.650
  N     -314.757    -336.771     418.847
  C     -314.567    -338.137     418.678
  O     -314.365    -338.673     417.588
  N     -314.613    -338.890     419.821
  C     -314.834    -338.420     421.083
  O     -314.847    -339.138     422.077
  C     -315.064    -336.972     421.194
  C     -315.017    -336.227     420.090
  O     -315.007    -329.823     417.011
  O     -313.847    -329.851     419.293
  H     -313.779    -328.902     419.082
  H     -315.934    -337.273     415.639
  H     -314.471    -339.885     419.719
  H     -315.270    -336.571     422.176
  H     -315.182    -335.155     420.131
  H     -314.008    -336.323     416.948
  H     -316.894    -335.562     417.700
  H     -316.762    -334.194     415.643
  H     -314.217    -333.259     416.374
  H     -316.250    -331.956     416.905
  H     -316.683    -333.119     418.187
  P     -315.583    -335.433     413.486
  C     -313.983    -335.180     411.476
  O     -314.384    -335.992     412.573
  O     -316.343    -334.316     412.844
  O     -316.529    -336.710     413.693
  H     -317.286    -336.653     413.079
  H     -313.183    -335.659     410.951
  H     -313.653    -334.229     411.838
  H     -314.812    -335.041     410.813

 6  7  8  9  10  11  12  13  14  15  16  27  31  32  33  34  35 0
 6-311+G(2d,p)
 ****
 36  37 0
 6-311+G(2d,p)
 ****
 1  2  3  4  5  17  18  19  20  21  22  23  24  25 0
 3-21G
 ****
 26  28  29  30  38  39  40  41  42  43  44  45 0
 3-21G
 ****


