%nproc=1
%NoSave
%Mem=1900MB
#P OB98/GEN NMR

erre ene a

0 1
  C      -95.750    -106.920     -34.987
  O      -95.434    -107.250     -33.649
  P      -96.567    -107.690     -32.602
  C      -96.581    -105.361     -31.513
  O      -97.342    -106.340     -32.205
  C      -97.444    -104.155     -31.130
  O      -97.895    -103.478     -32.336
  C      -98.689    -104.496     -30.297
  O      -98.896    -103.391     -29.412
  C      -99.782    -104.548     -31.348
  O     -101.083    -104.416     -30.794
  C      -99.339    -103.411     -32.280
  N      -99.948    -103.519     -33.602
  C     -101.047    -102.693     -33.856
  O     -101.508    -101.979     -32.965
  N     -101.633    -102.735     -35.098
  C     -101.222    -103.604     -35.969
  N     -101.839    -103.597     -37.183
  C     -100.151    -104.580     -35.697
  C      -99.552    -104.473     -34.511
  O      -96.083    -108.500     -31.448
  O      -97.645    -108.452     -33.510
  H     -101.263    -105.204     -30.235
  H      -97.326    -109.364     -33.728
  H      -99.880    -105.322     -36.434
  H      -98.756    -105.143     -34.220
  H      -99.605    -102.434     -31.853
  H      -99.741    -105.508     -31.876
  H      -98.598    -105.430     -29.738
  H      -96.809    -103.449     -30.581
  H     -102.559    -102.901     -37.335
  H      -95.780    -105.023     -32.175
  H     -101.542    -104.173     -37.959
  H      -96.118    -105.804     -30.625
  P      -99.601    -103.587     -27.985
  C     -101.854    -103.052     -29.082
  O     -101.133    -103.961     -28.268
  O      -99.398    -102.464     -27.019
  O      -98.987    -104.958     -27.424
  H      -99.165    -105.025     -26.465
  H     -102.770    -103.537     -29.433
  H     -101.260    -102.746     -29.949
  H     -102.121    -102.169     -28.494
  H      -94.855    -106.657     -35.510
  H      -96.427    -106.092     -35.000
  H      -96.207    -107.762     -35.464

 3  4  5  6  7  8  9  10  11  12  13  23  27  28  29  30  32 0
 6-311+G(2d,p)
 ****
 34  35 0
 6-311+G(2d,p)
 ****
 1  2  14  15  16  17  18  19  20  21  22  24  25  26 0
 3-21G
 ****
 31  33  36  37  38  39  40  41  42  43  44  45  46 0
 3-21G
 ****


