%nproc=1
%NoSave
%Mem=1900MB
#P OB98/GEN NMR

erre ene a

0 1
  C      252.159     274.974    -340.297
  O      250.796     275.046    -339.924
  H      252.306     275.583    -341.193
  H      252.441     273.943    -340.522
  H      252.793     275.370    -339.498
  P      250.309     274.203    -338.654
  C      248.485     273.032    -340.059
  O      248.769     273.839    -338.924
  C      247.388     273.673    -340.904
  O      246.133     273.658    -340.196
  C      247.653     275.134    -341.275
  O      248.525     275.214    -342.387
  C      246.243     275.593    -341.604
  O      245.866     275.109    -342.909
  C      245.417     274.879    -340.521
  N      242.912     278.712    -338.328
  C      242.941     278.315    -339.651
  N      242.226     279.063    -340.517
  N      243.618     277.286    -340.088
  C      244.342     276.675    -339.123
  C      244.411     276.986    -337.782
  C      243.601     278.085    -337.302
  O      243.530     278.453    -336.133
  N      245.324     276.198    -337.128
  C      245.768     275.378    -338.060
  N      245.211     275.630    -339.291
  O      250.558     274.826    -337.313
  O      251.047     272.792    -338.808
  H      246.057     274.153    -342.926
  H      251.898     272.787    -338.332
  H      242.377     279.519    -338.053
  H      246.490     274.583    -337.901
  H      244.422     274.592    -340.884
  H      246.147     276.682    -341.626
  H      241.808     279.948    -340.270
  H      248.023     275.704    -340.417
  H      242.282     278.822    -341.501
  H      247.256     273.059    -341.805
  H      248.161     272.052    -339.694
  H      249.385     272.899    -340.668
  P      249.672     276.340    -342.476
  C      248.046     278.211    -343.222
  O      249.149     277.390    -343.569
  O      251.045     275.818    -342.719
  O      249.512     277.168    -341.119
  H      250.003     276.763    -340.360
  H      247.810     278.857    -344.042
  H      248.296     278.800    -342.365
  H      247.200     277.596    -342.998

 6  7  8  9  10  11  12  13  14  15  26  29  33  34 0
 6-311+G(2d,p)
 ****
 36  38  39  40  41 0
 6-311+G(2d,p)
 ****
 1  2  3  4  5  16  17  18  19  20  21  22  23  24  25 0
 3-21G
 ****
 27  28  30  31  32  35  37  42  43  44  45  46  47 0
 3-21G
 ****
 48  49 0
 3-21G
 ****


