%nproc=1
%NoSave
%Mem=1900MB
#P OB98/GEN NMR

erre ene a

0 1
  C      288.385     -79.863      75.990
  O      288.785     -80.542      74.818
  H      287.539     -79.214      75.748
  H      289.204     -79.244      76.365
  H      288.070     -80.571      76.764
  P      289.876     -81.712      74.935
  C      291.712     -79.986      74.376
  O      291.276     -81.006      75.268
  C      293.192     -80.175      74.050
  O      293.992     -79.963      75.233
  C      293.545     -81.573      73.557
  O      293.141     -81.750      72.210
  C      295.051     -81.580      73.782
  O      295.729     -80.890      72.723
  C      295.166     -80.798      75.114
  N      295.309     -81.670      76.281
  C      296.588     -82.154      76.536
  O      297.555     -81.914      75.815
  N      296.715     -82.946      77.647
  C      295.696     -83.361      78.457
  O      295.855     -84.116      79.412
  C      294.363     -82.845      78.119
  C      294.231     -82.037      77.064
  O      289.915     -82.681      73.799
  O      289.503     -82.435      76.315
  H      295.380     -79.977      72.715
  H      289.001     -83.253      76.132
  H      297.631     -83.317      77.842
  H      293.528     -83.155      78.736
  H      293.254     -81.651      76.796
  H      296.028     -80.123      75.084
  H      295.466     -82.589      73.818
  H      293.089     -82.333      74.204
  H      293.477     -79.415      73.311
  H      291.563     -79.010      74.856
  H      291.106     -80.030      73.466
  P      292.619     -83.171      71.693
  C      294.913     -83.657      70.665
  O      293.895     -84.131      71.540
  O      291.727     -83.125      70.497
  O      291.852     -83.786      72.961
  H      290.887     -83.744      72.815
  H      295.714     -84.365      70.633
  H      295.281     -82.718      71.022
  H      294.509     -83.531      69.682

 6  7  8  9  10  11  12  13  14  15  16  26  31  32  33  34  35 0
 6-311+G(2d,p)
 ****
 36  37 0
 6-311+G(2d,p)
 ****
 1  2  3  4  5  17  18  19  20  21  22  23  24  25 0
 3-21G
 ****
 27  28  29  30  38  39  40  41  42  43  44  45 0
 3-21G
 ****


