%nproc=1
%NoSave
%Mem=1900MB
#P OB98/GEN NMR

erre ene a

0 1
  C      -50.859    -222.583    -268.900
  O      -49.619    -223.085    -268.394
  P      -49.367    -222.970    -266.812
  C      -48.352    -220.579    -267.100
  O      -48.180    -221.904    -266.630
  C      -47.030    -219.805    -267.044
  O      -46.795    -219.332    -265.683
  C      -45.802    -220.614    -267.475
  O      -44.936    -219.713    -268.181
  C      -45.177    -221.017    -266.152
  O      -43.799    -221.336    -266.288
  C      -45.474    -219.772    -265.309
  N      -45.378    -220.028    -263.874
  C      -44.541    -219.197    -263.141
  O      -43.836    -218.332    -263.659
  N      -44.503    -219.423    -261.791
  C      -45.148    -220.430    -261.131
  O      -45.077    -220.590    -259.919
  C      -45.928    -221.347    -261.975
  C      -46.004    -221.106    -263.286
  O      -48.687    -224.382    -266.498
  O      -50.614    -222.681    -266.043
  H      -48.095    -224.693    -267.203
  H      -43.461    -221.669    -265.432
  H      -43.926    -218.812    -261.236
  H      -46.406    -222.193    -261.495
  H      -46.553    -221.775    -263.937
  H      -44.777    -218.964    -265.563
  H      -45.696    -221.892    -265.745
  H      -46.055    -221.464    -268.116
  H      -47.132    -218.917    -267.681
  H      -49.092    -220.060    -266.484
  H      -48.751    -220.608    -268.122
  P      -45.071    -219.627    -269.783
  C      -42.937    -221.117    -270.053
  O      -43.623    -219.936    -270.394
  O      -45.209    -218.039    -269.965
  O      -46.224    -220.377    -270.363
  H      -44.547    -217.538    -269.457
  H      -42.099    -221.249    -270.745
  H      -43.589    -221.991    -270.129
  H      -42.543    -221.037    -269.036
  H      -50.894    -222.722    -269.960
  H      -50.940    -221.540    -268.674
  H      -51.670    -223.111    -268.444

 3  4  5  6  7  8  9  10  11  12  13  24  28  29  30  31  32 0
 6-311+G(2d,p)
 ****
 33  34 0
 6-311+G(2d,p)
 ****
 1  2  14  15  16  17  18  19  20  21  22  23  25  26  27 0
 3-21G
 ****
 35  36  37  38  39  40  41  42  43  44  45 0
 3-21G
 ****


