%nproc=1
%NoSave
%Mem=1900MB
#P OB98/GEN NMR

erre ene a

0 1
  C      328.736    -500.591      -5.846
  O      327.955    -501.777      -5.891
  P      326.489    -501.662      -6.547
  C      326.411    -503.720      -8.165
  O      326.040    -503.157      -6.907
  C      325.395    -504.783      -8.571
  O      325.683    -506.032      -7.902
  C      323.954    -504.438      -8.222
  O      323.397    -503.582      -9.204
  C      323.304    -505.823      -8.185
  O      322.994    -506.277      -9.512
  C      324.420    -506.680      -7.561
  N      321.555    -508.487      -3.802
  C      321.279    -508.357      -5.150
  N      320.069    -508.817      -5.563
  N      322.101    -507.825      -6.014
  C      323.255    -507.389      -5.461
  C      323.640    -507.456      -4.139
  C      322.741    -508.086      -3.199
  O      322.989    -508.317      -2.017
  N      324.883    -506.891      -3.953
  C      325.250    -506.529      -5.162
  N      324.314    -506.826      -6.114
  O      326.780    -500.986      -7.966
  O      325.493    -500.894      -5.733
  H      322.404    -505.633      -9.952
  H      326.602    -500.022      -7.933
  H      320.885    -508.919      -3.185
  H      326.202    -506.062      -5.410
  H      324.448    -507.690      -7.986
  H      322.368    -505.831      -7.620
  H      319.378    -509.215      -4.945
  H      323.893    -503.978      -7.230
  H      319.847    -508.730      -6.547
  H      325.504    -504.957      -9.653
  H      327.397    -504.179      -8.075
  H      326.453    -502.919      -8.912
  P      322.576    -502.300      -8.688
  C      323.229    -500.651     -10.599
  O      322.210    -501.425      -9.978
  O      323.688    -501.420      -7.937
  O      321.432    -502.620      -7.783
  H      323.290    -500.983      -7.159
  H      323.001    -500.566     -11.665
  H      324.210    -501.114     -10.469
  H      323.236    -499.655     -10.147
  H      329.680    -500.803      -5.390
  H      328.222    -499.847      -5.274
  H      328.894    -500.230      -6.841

 3  4  5  6  7  8  9  10  11  12  23  26  30  31 0
 6-311+G(2d,p)
 ****
 33  35  36  37  38 0
 6-311+G(2d,p)
 ****
 1  2  13  14  15  16  17  18  19  20  21  22  24  25 0
 3-21G
 ****
 27  28  29  32  34  39  40  41  42  43  44  45  46  47  48  49 0
 3-21G
 ****


