%nproc=1
%NoSave
%Mem=1900MB
#P OB98/GEN NMR

erre ene a

0 1
  C     -128.771     412.637     -61.031
  O     -129.091     413.866     -60.410
  H     -129.331     411.839     -60.539
  H     -127.704     412.432     -60.918
  H     -129.039     412.649     -62.091
  P     -128.630     415.233     -61.105
  C     -131.025     416.196     -61.039
  O     -129.676     416.350     -60.621
  C     -131.834     417.448     -60.687
  O     -132.371     417.281     -59.339
  C     -130.996     418.743     -60.697
  O     -131.825     419.823     -61.137
  C     -130.670     418.904     -59.226
  O     -130.299     420.223     -58.909
  C     -131.974     418.437     -58.585
  N     -131.797     418.148     -57.165
  C     -131.860     419.226     -56.287
  O     -132.042     420.389     -56.650
  N     -131.633     418.944     -54.969
  C     -131.244     417.734     -54.470
  O     -130.976     417.556     -53.290
  C     -131.142     416.640     -55.450
  C     -131.425     416.891     -56.729
  O     -128.420     415.177     -62.584
  O     -127.303     415.652     -60.316
  H     -130.992     420.844     -59.203
  H     -126.768     416.269     -60.853
  H     -131.688     419.714     -54.320
  H     -130.824     415.672     -55.087
  H     -131.342     416.113     -57.483
  H     -132.759     419.198     -58.701
  H     -129.839     418.244     -58.948
  H     -130.107     418.674     -61.329
  H     -132.688     417.527     -61.364
  H     -131.447     415.325     -60.523
  H     -131.059     416.018     -62.118
  P     -132.041     420.150     -62.693
  C     -134.306     421.352     -62.573
  O     -132.922     421.484     -62.876
  O     -132.525     418.988     -63.503
  O     -130.587     420.597     -63.207
  H     -130.396     420.149     -64.053
  H     -134.796     422.291     -62.727
  H     -134.421     421.053     -61.552
  H     -134.742     420.613     -63.212

 6  7  8  9  10  11  12  13  14  15  16  26  31  32  33  34  35 0
 6-311+G(2d,p)
 ****
 36  37 0
 6-311+G(2d,p)
 ****
 1  2  3  4  5  17  18  19  20  21  22  23  24  25 0
 3-21G
 ****
 27  28  29  30  38  39  40  41  42  43  44  45 0
 3-21G
 ****


