%nproc=1
%NoSave
%Mem=1900MB
#P OB98/GEN NMR

erre ene a

0 1
  C      -71.177     159.471    -110.406
  O      -70.601     160.647    -109.880
  H      -71.548     158.861    -109.579
  H      -70.423     158.897    -110.950
  H      -72.012     159.713    -111.069
  P      -70.129     161.770    -110.924
  C      -72.265     163.231    -110.722
  O      -71.465     162.405    -111.553
  C      -73.329     163.950    -111.553
  O      -74.140     162.957    -112.233
  C      -74.265     164.833    -110.722
  O      -74.557     166.017    -111.468
  C      -75.524     163.997    -110.589
  O      -76.690     164.788    -110.366
  C      -75.519     163.217    -111.909
  N      -76.293     161.982    -111.805
  C      -77.331     161.811    -112.724
  O      -77.564     162.682    -113.565
  N      -78.118     160.693    -112.637
  C      -77.940     159.857    -111.661
  N      -78.771     158.781    -111.611
  C      -76.901     160.031    -110.628
  C      -76.117     161.100    -110.764
  O      -69.525     160.918    -112.135
  O      -69.160     162.771    -110.392
  H      -77.476     164.204    -110.431
  H      -68.796     161.396    -112.576
  H      -76.808     159.322    -109.819
  H      -75.332     161.315    -110.049
  H      -75.940     163.827    -112.720
  H      -75.419     163.308    -109.742
  H      -73.847     165.108    -109.750
  H      -72.825     164.537    -112.329
  H      -79.483     158.706    -112.329
  H      -71.626     163.979    -110.241
  H      -78.753     158.093    -110.874
  H      -72.737     162.620    -109.946
  P      -73.776     167.351    -111.040
  C      -72.621     167.431    -113.365
  O      -72.463     167.477    -111.953
  O      -73.199     166.992    -109.592
  O      -74.642     168.567    -111.002
  H      -73.685     167.485    -108.907
  H      -71.664     167.527    -113.834
  H      -73.254     168.234    -113.679
  H      -73.063     166.498    -113.644

 6  7  8  9  10  11  12  13  14  15  16  26  30  31  32  33  35 0
 6-311+G(2d,p)
 ****
 37  38 0
 6-311+G(2d,p)
 ****
 1  2  3  4  5  17  18  19  20  21  22  23  24  25 0
 3-21G
 ****
 27  28  29  34  36  39  40  41  42  43  44  45  46 0
 3-21G
 ****


