%nproc=1
%NoSave
%Mem=1900MB
#P OB98/GEN NMR

erre ene a

0 1
  C     -147.264     608.415     565.108
  O     -146.341     607.589     564.379
  P     -145.890     606.180     565.000
  C     -144.231     606.696     566.946
  O     -145.550     606.336     566.561
  C     -143.935     606.269     568.392
  O     -144.056     604.813     568.521
  C     -142.534     606.642     568.897
  O     -142.639     606.904     570.303
  C     -141.745     605.363     568.662
  O     -140.559     605.282     569.435
  C     -142.803     604.315     569.040
  N     -142.526     602.969     568.542
  C     -141.585     602.210     569.218
  O     -140.916     602.605     570.172
  N     -141.394     600.934     568.737
  C     -142.009     600.382     567.648
  O     -141.772     599.251     567.243
  C     -142.974     601.248     566.961
  C     -143.182     602.479     567.431
  O     -144.436     605.980     564.354
  O     -146.769     605.018     564.662
  H     -140.806     605.406     570.367
  H     -144.345     605.067     564.022
  H     -140.728     600.358     569.223
  H     -143.487     600.849     566.089
  H     -143.909     603.134     566.948
  H     -142.912     604.283     570.135
  H     -141.469     605.294     567.607
  H     -142.104     607.509     568.377
  H     -144.707     606.703     569.039
  H     -144.115     607.781     566.866
  H     -143.513     606.228     566.260
  P     -143.510     608.170     570.784
  C     -141.618     609.980     570.863
  O     -142.781     609.481     570.225
  O     -143.161     608.182     572.351
  O     -144.975     608.055     570.508
  H     -142.204     608.063     572.524
  H     -140.952     609.164     571.157
  H     -141.913     610.550     571.748
  H     -141.090     610.631     570.169
  H     -147.455     609.311     564.555
  H     -146.843     608.666     566.059
  H     -148.181     607.883     565.253

 3  4  5  6  7  8  9  10  11  12  13  23  28  29  30  31  32 0
 6-311+G(2d,p)
 ****
 33  34 0
 6-311+G(2d,p)
 ****
 1  2  14  15  16  17  18  19  20  21  22  24  25  26 0
 3-21G
 ****
 27  35  36  37  38  39  40  41  42  43  44  45 0
 3-21G
 ****


