%nproc=1
%NoSave
%Mem=1900MB
#P OB98/GEN NMR

erre ene a

0 1
  C     -416.074     157.420    -339.096
  O     -417.461     157.188    -339.352
  P     -418.104     157.978    -340.595
  C     -420.188     159.240    -339.684
  O     -419.689     158.084    -340.342
  C     -421.683     159.068    -339.392
  O     -422.428     158.739    -340.584
  C     -421.984     157.944    -338.406
  O     -421.666     158.332    -337.082
  C     -423.470     157.734    -338.661
  O     -424.250     158.739    -337.982
  C     -423.572     157.949    -340.181
  N     -426.538     154.184    -341.978
  C     -426.819     155.288    -341.261
  N     -425.971     156.245    -340.813
  C     -424.713     155.978    -341.204
  C     -424.269     154.889    -341.941
  C     -425.253     153.962    -342.336
  N     -424.958     152.827    -343.059
  N     -422.907     154.956    -342.140
  C     -422.527     156.051    -341.508
  N     -423.584     156.705    -340.938
  O     -417.974     156.937    -341.799
  O     -417.422     159.271    -340.898
  H     -424.001     158.704    -337.036
  H     -417.295     157.239    -342.428
  H     -427.865     155.431    -340.997
  H     -421.504     156.406    -341.440
  H     -424.472     158.505    -340.462
  H     -423.831     156.758    -338.322
  H     -421.424     157.043    -338.674
  H     -422.063     160.025    -338.999
  H     -420.037     160.128    -340.300
  H     -425.703     152.167    -343.237
  H     -423.991     152.600    -343.253
  H     -419.622     159.390    -338.756
  P     -421.264     157.172    -336.042
  C     -422.154     158.857    -334.309
  O     -421.116     157.956    -334.642
  O     -419.755     156.876    -336.447
  O     -422.189     155.997    -336.023
  H     -419.244     157.702    -336.575
  H     -421.939     159.290    -333.329
  H     -423.115     158.333    -334.270
  H     -422.198     159.660    -335.047
  H     -415.766     156.842    -338.250
  H     -415.918     158.459    -338.894
  H     -415.500     157.133    -339.952

 3  4  5  6  7  8  9  10  11  12  22  25  29  30  31  32 0
 6-311+G(2d,p)
 ****
 33  36  37 0
 6-311+G(2d,p)
 ****
 1  2  13  14  15  16  17  18  19  20  21  23  24  26 0
 3-21G
 ****
 27  28  34  35  38  39  40  41  42  43  44  45  46  47  48 0
 3-21G
 ****


