%nproc=1
%NoSave
%Mem=1900MB
#P OB98/GEN NMR

erre ene a

0 1
  C      142.514      46.136      -0.784
  O      143.257      45.623      -1.870
  H      143.177      46.236       0.078
  H      141.706      45.448      -0.524
  H      142.102      47.120      -1.024
  P      142.573      45.568      -3.318
  C      141.368      43.311      -3.003
  O      141.224      44.717      -3.162
  C      140.017      42.686      -2.667
  O      139.497      43.251      -1.445
  C      138.942      42.922      -3.722
  O      139.143      42.084      -4.844
  C      137.686      42.627      -2.916
  O      137.464      41.212      -2.817
  C      138.055      43.227      -1.539
  N      137.494      44.559      -1.323
  C      136.293      44.619      -0.623
  O      135.694      43.618      -0.231
  N      135.791      45.874      -0.403
  C      136.318      47.040      -0.878
  O      135.798      48.138      -0.698
  C      137.568      46.913      -1.640
  C      138.090      45.699      -1.823
  O      143.459      45.139      -4.440
  O      142.032      47.060      -3.535
  H      136.704      41.091      -2.213
  H      142.646      47.553      -4.109
  H      134.915      45.936       0.091
  H      138.011      47.817      -2.036
  H      139.009      45.586      -2.387
  H      137.701      42.572      -0.733
  H      136.789      43.056      -3.364
  H      138.928      43.977      -4.020
  H      140.170      41.611      -2.502
  H      142.073      43.119      -2.187
  H      141.770      42.890      -3.929
  P      138.915      42.636      -6.327
  C      136.681      41.392      -6.483
  O      137.331      42.651      -6.599
  O      139.721      41.964      -7.389
  O      139.278      44.191      -6.223
  H      140.143      44.357      -6.648
  H      135.636      41.510      -6.682
  H      136.815      41.012      -5.492
  H      137.103      40.706      -7.188

 6  7  8  9  10  11  12  13  14  15  16  26  31  32  33  34  35 0
 6-311+G(2d,p)
 ****
 36  37 0
 6-311+G(2d,p)
 ****
 1  2  3  4  5  17  18  19  20  21  22  23  24  25 0
 3-21G
 ****
 27  28  29  30  38  39  40  41  42  43  44  45 0
 3-21G
 ****


