%nproc=1
%NoSave
%Mem=1900MB
#P OB98/GEN NMR

erre ene a

0 1
  C     -202.153     525.198    -141.575
  O     -201.195     526.234    -141.357
  P     -199.671     525.916    -141.737
  C     -200.009     527.516    -143.741
  O     -199.445     526.304    -143.283
  C     -200.049     527.588    -145.278
  O     -198.726     527.320    -145.833
  C     -201.007     526.580    -145.908
  O     -201.553     527.173    -147.097
  C     -200.093     525.435    -146.312
  O     -200.700     524.600    -147.307
  C     -198.859     526.226    -146.762
  N     -195.247     524.185    -149.748
  C     -196.324     524.961    -150.016
  N     -197.261     525.437    -149.167
  C     -196.974     525.076    -147.908
  C     -195.914     524.292    -147.471
  C     -195.035     523.815    -148.453
  N     -193.954     523.013    -148.183
  N     -195.984     524.096    -146.108
  C     -197.051     524.773    -145.726
  N     -197.669     525.405    -146.769
  O     -199.633     524.303    -141.759
  O     -198.670     526.466    -140.785
  H     -200.155     523.778    -147.376
  H     -199.139     523.982    -140.979
  H     -196.459     525.216    -151.071
  H     -197.448     524.818    -144.717
  H     -198.978     526.640    -147.770
  H     -199.865     524.811    -145.437
  H     -201.828     526.247    -145.249
  H     -200.333     528.600    -145.573
  H     -199.437     528.369    -143.356
  H     -193.387     522.694    -148.954
  H     -193.803     522.703    -147.220
  H     -201.013     527.624    -143.322
  P     -202.840     528.113    -146.910
  C     -201.816     529.732    -148.654
  O     -202.379     529.589    -147.376
  O     -202.966     528.245    -145.314
  O     -204.079     527.585    -147.541
  H     -203.915     528.426    -145.085
  H     -202.190     530.648    -149.110
  H     -202.034     528.895    -149.314
  H     -200.724     529.829    -148.551
  H     -203.123     525.541    -141.281
  H     -201.888     524.339    -140.995
  H     -202.166     524.937    -142.613

 3  4  5  6  7  8  9  10  11  12  22  25  29  30  31  32 0
 6-311+G(2d,p)
 ****
 33  36  37 0
 6-311+G(2d,p)
 ****
 1  2  13  14  15  16  17  18  19  20  21  23  24  26 0
 3-21G
 ****
 27  28  34  35  38  39  40  41  42  43  44  45  46  47  48 0
 3-21G
 ****


