%nproc=1
%NoSave
%Mem=1900MB
#P OB98/GEN NMR

erre ene a

0 1
  C     -237.687    -302.452    -349.644
  O     -237.789    -301.614    -350.778
  H     -237.993    -301.889    -348.760
  H     -236.650    -302.775    -349.511
  H     -238.339    -303.323    -349.754
  P     -237.548    -302.293    -352.208
  C     -237.296    -299.860    -353.168
  O     -236.823    -301.204    -353.139
  C     -236.402    -299.006    -354.067
  O     -235.044    -298.980    -353.577
  C     -236.261    -299.553    -355.486
  O     -237.438    -299.396    -356.251
  C     -235.089    -298.717    -355.985
  O     -235.507    -297.401    -356.360
  C     -234.194    -298.667    -354.717
  N     -233.056    -299.571    -354.800
  C     -231.950    -299.099    -355.523
  O     -231.980    -297.975    -356.035
  N     -230.862    -299.919    -355.670
  C     -230.854    -301.094    -355.126
  N     -229.747    -301.866    -355.318
  C     -231.983    -301.622    -354.340
  C     -233.039    -300.815    -354.222
  O     -239.027    -302.354    -352.821
  O     -236.837    -303.610    -352.176
  H     -236.225    -297.511    -357.008
  H     -239.484    -301.496    -352.821
  H     -231.930    -302.611    -353.895
  H     -233.913    -301.132    -353.653
  H     -233.810    -297.650    -354.558
  H     -234.613    -299.165    -356.858
  H     -235.945    -300.602    -355.461
  H     -236.790    -297.983    -354.068
  H     -229.001    -301.473    -355.890
  H     -237.339    -299.440    -352.159
  H     -229.643    -302.801    -354.977
  H     -238.318    -299.881    -353.563
  P     -238.146    -300.663    -356.930
  C     -239.046    -299.235    -358.877
  O     -238.229    -300.333    -358.501
  O     -239.436    -301.081    -356.312
  O     -237.002    -301.790    -356.881
  H     -236.181    -301.556    -357.354
  H     -239.019    -299.118    -359.940
  H     -238.682    -298.343    -358.411
  H     -240.053    -299.416    -358.564

 6  7  8  9  10  11  12  13  14  15  16  26  30  31  32  33  35 0
 6-311+G(2d,p)
 ****
 37  38 0
 6-311+G(2d,p)
 ****
 1  2  3  4  5  17  18  19  20  21  22  23  24  25 0
 3-21G
 ****
 27  28  29  34  36  39  40  41  42  43  44  45  46 0
 3-21G
 ****


