%nproc=1
%NoSave
%Mem=1900MB
#P OB98/GEN NMR

erre ene a

0 1
  C     -226.091     812.575     472.496
  O     -226.826     813.737     472.177
  H     -226.082     811.916     471.623
  H     -226.575     812.050     473.323
  H     -225.062     812.816     472.763
  P     -226.733     815.001     473.150
  C     -225.075     816.112     471.516
  O     -226.277     816.251     472.259
  C     -224.473     817.489     471.187
  O     -223.179     817.302     470.556
  C     -225.349     818.259     470.191
  O     -225.215     819.669     470.341
  C     -224.769     817.851     468.843
  O     -225.046     818.789     467.804
  C     -223.279     817.718     469.185
  N     -221.300     816.821     464.578
  C     -222.121     817.852     464.986
  N     -222.454     818.769     464.037
  N     -222.596     817.971     466.197
  C     -222.232     816.940     467.011
  C     -221.443     815.853     466.719
  C     -220.898     815.761     465.371
  O     -220.183     814.855     464.957
  N     -221.305     815.027     467.800
  C     -222.017     815.603     468.753
  N     -222.576     816.785     468.330
  O     -225.423     814.706     474.031
  O     -227.931     815.238     474.022
  H     -225.991     819.019     467.870
  H     -225.451     815.203     474.865
  H     -220.944     816.791     463.636
  H     -222.143     815.221     469.755
  H     -222.777     818.693     469.096
  H     -225.217     816.895     468.550
  H     -222.280     818.604     463.064
  H     -226.399     817.992     470.260
  H     -223.287     819.336     464.231
  H     -224.295     818.054     472.111
  H     -225.327     815.578     470.596
  H     -224.355     815.499     472.063
  P     -226.399     820.482     471.055
  C     -225.185     820.722     473.396
  O     -225.815     821.319     472.288
  O     -227.275     819.338     471.756
  O     -227.216     821.326     470.135
  H     -228.162     819.304     471.357
  H     -224.881     821.482     474.086
  H     -224.326     820.175     473.066
  H     -225.869     820.055     473.878

 6  7  8  9  10  11  12  13  14  15  26  29  33  34 0
 6-311+G(2d,p)
 ****
 36  38  39  40  41 0
 6-311+G(2d,p)
 ****
 1  2  3  4  5  16  17  18  19  20  21  22  23  24  25 0
 3-21G
 ****
 27  28  30  31  32  35  37  42  43  44  45  46  47 0
 3-21G
 ****
 48  49 0
 3-21G
 ****


