%nproc=1
%NoSave
%Mem=1900MB
#P OB98/GEN NMR

erre ene a

0 1
  C      503.963    -540.779    -369.841
  O      504.869    -540.263    -368.886
  H      503.718    -539.987    -370.553
  H      503.049    -541.109    -369.345
  H      504.414    -541.615    -370.384
  P      505.440    -541.291    -367.797
  C      508.024    -541.085    -367.931
  O      506.825    -540.680    -367.268
  C      509.248    -540.730    -367.093
  O      509.553    -539.315    -367.268
  C      509.079    -540.987    -365.589
  O      510.345    -541.415    -365.066
  C      508.783    -539.593    -365.037
  O      509.073    -539.483    -363.646
  C      509.690    -538.756    -365.943
  N      511.229    -534.222    -364.401
  C      511.848    -535.449    -364.318
  N      513.069    -535.486    -363.742
  N      511.318    -536.558    -364.776
  C      510.104    -536.378    -365.358
  C      509.390    -535.214    -365.493
  C      509.977    -533.998    -364.964
  O      509.469    -532.880    -364.981
  N      508.189    -535.448    -366.118
  C      508.189    -536.740    -366.357
  N      509.331    -537.356    -365.917
  O      505.892    -542.537    -368.690
  O      504.476    -541.691    -366.725
  H      509.017    -538.529    -363.405
  H      505.174    -543.199    -368.740
  H      511.685    -533.402    -364.019
  H      507.389    -537.292    -366.852
  H      510.748    -538.821    -365.658
  H      507.732    -539.348    -365.195
  H      513.561    -534.669    -363.411
  H      508.308    -541.717    -365.336
  H      513.560    -536.374    -363.714
  H      510.111    -541.286    -367.492
  H      508.082    -540.564    -368.901
  H      507.981    -542.164    -368.108
  P      510.769    -542.945    -365.281
  C      513.224    -542.414    -364.603
  O      512.081    -543.227    -364.399
  O      511.343    -542.948    -366.778
  O      509.661    -543.927    -365.114
  H      511.224    -543.828    -367.176
  H      514.007    -542.727    -363.944
  H      512.976    -541.393    -364.402
  H      513.553    -542.508    -365.617

 6  7  8  9  10  11  12  13  14  15  26  29  33  34 0
 6-311+G(2d,p)
 ****
 36  38  39  40  41 0
 6-311+G(2d,p)
 ****
 1  2  3  4  5  16  17  18  19  20  21  22  23  24  25 0
 3-21G
 ****
 27  28  30  31  32  35  37  42  43  44  45  46  47 0
 3-21G
 ****
 48  49 0
 3-21G
 ****


