%nproc=1
%NoSave
%Mem=1900MB
#P OB98/GEN NMR

erre ene a

0 1
  C      194.343     375.725     208.875
  O      195.479     375.722     209.710
  H      193.510     375.270     209.420
  H      194.527     375.131     207.976
  H      194.067     376.747     208.600
  P      196.869     376.296     209.148
  C      198.107     374.090     208.705
  O      197.980     375.207     209.574
  C      199.004     373.015     209.319
  O      198.435     372.568     210.580
  C      199.182     371.776     208.428
  O      200.565     371.416     208.367
  C      198.407     370.691     209.163
  O      198.859     369.375     208.855
  C      198.599     371.139     210.619
  N      197.650     370.494     211.518
  C      197.872     369.137     211.778
  O      198.828     368.558     211.264
  N      196.980     368.459     212.568
  C      195.924     369.072     213.016
  N      195.065     368.336     213.770
  C      195.638     370.496     212.743
  C      196.532     371.141     211.995
  O      197.173     377.700     209.551
  O      196.781     376.103     207.562
  H      198.272     368.731     209.313
  H      197.407     376.730     207.128
  H      194.744     370.957     213.139
  H      196.408     372.191     211.742
  H      199.616     370.920     210.967
  H      197.347     370.756     208.890
  H      198.808     371.914     207.416
  H      199.974     373.469     209.563
  H      195.298     367.362     213.925
  H      198.521     374.435     207.751
  H      194.204     368.693     214.150
  H      197.111     373.670     208.533
  P      201.140     371.047     206.915
  C      202.883     369.366     207.852
  O      202.655     370.547     207.095
  O      201.284     372.469     206.200
  O      200.253     370.129     206.141
  H      200.615     372.554     205.492
  H      203.932     369.160     207.884
  H      202.372     368.545     207.394
  H      202.516     369.504     208.848

 6  7  8  9  10  11  12  13  14  15  16  26  30  31  32  33  35 0
 6-311+G(2d,p)
 ****
 37  38 0
 6-311+G(2d,p)
 ****
 1  2  3  4  5  17  18  19  20  21  22  23  24  25 0
 3-21G
 ****
 27  28  29  34  36  39  40  41  42  43  44  45  46 0
 3-21G
 ****


