%nproc=1
%NoSave
%Mem=1900MB
#P OB98/GEN NMR

erre ene a

0 1
  C      445.698    -683.623    -690.321
  O      446.678    -683.887    -689.335
  H      445.528    -684.538    -690.899
  H      446.044    -682.839    -691.000
  H      444.760    -683.322    -689.845
  P      447.120    -682.651    -688.410
  C      446.420    -683.765    -686.189
  O      447.508    -683.323    -686.993
  C      446.942    -684.509    -684.959
  O      447.651    -685.703    -685.407
  C      447.913    -683.686    -684.098
  O      447.718    -684.006    -682.717
  C      449.275    -684.191    -684.537
  O      450.278    -683.967    -683.555
  C      448.968    -685.664    -684.815
  N      453.778    -687.305    -685.165
  C      453.019    -686.934    -684.105
  N      451.736    -686.526    -684.104
  C      451.211    -686.585    -685.348
  C      451.860    -686.946    -686.519
  C      453.222    -687.302    -686.400
  N      454.011    -687.651    -687.472
  N      451.001    -686.831    -687.599
  C      449.858    -686.422    -687.083
  N      449.943    -686.245    -685.729
  O      446.147    -681.523    -688.330
  O      448.561    -682.283    -689.017
  H      450.240    -683.030    -683.271
  H      449.106    -683.078    -689.146
  H      453.522    -686.951    -683.142
  H      448.945    -686.225    -687.645
  H      448.964    -686.279    -683.905
  H      449.580    -683.678    -685.458
  H      447.810    -682.615    -684.249
  H      446.077    -684.856    -684.360
  H      445.759    -684.428    -686.765
  H      454.965    -687.900    -687.293
  H      453.609    -687.660    -688.401
  H      445.848    -682.880    -685.882
  P      446.872    -683.000    -681.796
  C      445.733    -684.846    -680.390
  O      446.589    -683.712    -680.382
  O      445.671    -682.391    -682.448
  O      447.964    -681.884    -681.413
  H      447.530    -681.001    -681.467
  H      445.629    -685.221    -679.393
  H      446.153    -685.606    -681.015
  H      444.772    -684.565    -680.767

 6  7  8  9  10  11  12  13  14  15  25  28  32  33  34  35 0
 6-311+G(2d,p)
 ****
 36  39  40 0
 6-311+G(2d,p)
 ****
 1  2  3  4  5  16  17  18  19  20  21  22  23  24 0
 3-21G
 ****
 26  27  29  30  31  37  38  41  42  43  44  45  46  47 0
 3-21G
 ****
 48 0
 3-21G
 ****


