%nproc=1
%NoSave
%Mem=1900MB
#P OB98/GEN NMR

erre ene a

0 1
  C       56.496     234.443       5.501
  O       56.638     235.849       5.562
  H       55.528     234.207       5.051
  H       56.532     234.018       6.510
  H       57.288     234.008       4.886
  P       58.008     236.402       6.182
  C       59.504     236.595       4.055
  O       58.705     237.262       5.021
  C       60.933     237.156       4.066
  O       61.682     236.546       2.972
  C       61.004     238.678       3.860
  O       62.184     239.158       4.526
  C       61.199     238.774       2.353
  O       61.613     240.068       1.978
  C       62.181     237.625       2.149
  N       63.741     238.938      -2.540
  C       63.833     239.572      -1.351
  N       63.405     239.154      -0.144
  C       62.849     237.934      -0.230
  C       62.693     237.160      -1.369
  C       63.168     237.709      -2.573
  N       63.069     237.067      -3.785
  N       62.072     235.961      -1.062
  C       61.858     236.011       0.238
  N       62.303     237.188       0.780
  O       58.920     235.091       6.285
  O       57.885     237.103       7.493
  H       62.367     240.367       2.527
  H       58.859     234.713       7.182
  H       64.309     240.550      -1.377
  H       61.382     235.241       0.828
  H       63.185     237.880       2.510
  H       60.257     238.583       1.827
  H       60.128     239.209       4.236
  H       61.429     236.853       4.995
  H       59.054     236.744       3.068
  H       59.534     235.523       4.280
  H       63.420     237.539      -4.604
  H       62.628     236.161      -3.827
  P       62.020     240.037       5.866
  C       61.783     238.137       7.652
  O       62.574     239.185       7.107
  O       60.436     239.983       6.108
  O       62.494     241.449       5.775
  H       60.153     240.785       6.584
  H       62.306     237.682       8.467
  H       61.593     237.404       6.896
  H       60.855     238.537       8.003

 6  7  8  9  10  11  12  13  14  15  25  28  32  33  34  35 0
 6-311+G(2d,p)
 ****
 36  37  40 0
 6-311+G(2d,p)
 ****
 1  2  3  4  5  16  17  18  19  20  21  22  23  24 0
 3-21G
 ****
 26  27  29  30  31  38  39 41  42  43  44  45  46  47  48 0
 3-21G
 ****


