%nproc=1
%NoSave
%Mem=1900MB
#P OB98/GEN NMR

erre ene a

0 1
  C      421.230     201.456     259.127
  O      421.205     201.766     257.739
  P      420.380     200.773     256.780
  C      422.568     199.410     256.399
  O      421.187     199.392     256.743
  C      423.224     198.084     256.772
  O      423.090     197.844     258.187
  C      422.617     196.865     256.092
  O      423.027     196.771     254.739
  C      423.140     195.753     256.991
  O      424.513     195.454     256.663
  C      423.056     196.403     258.383
  N      421.034     193.257     261.885
  C      422.278     193.335     261.354
  N      422.732     194.182     260.415
  C      421.759     195.026     260.020
  C      420.444     195.050     260.455
  C      420.089     194.113     261.440
  N      418.820     194.036     261.976
  N      419.732     196.039     259.805
  C      420.605     196.607     258.996
  N      421.845     196.038     259.101
  O      420.629     201.387     255.324
  O      418.923     200.657     257.100
  H      424.502     194.914     255.848
  H      419.845     201.267     254.755
  H      422.999     192.623     261.740
  H      420.384     197.431     258.334
  H      423.910     196.139     259.021
  H      422.572     194.819     256.901
  H      421.520     196.900     256.143
  H      424.296     198.156     256.536
  H      423.066     200.217     256.945
  H      418.611     193.242     262.565
  H      418.083     194.574     261.536
  H      422.664     199.609     255.327
  P      422.037     196.026     253.719
  C      423.324     193.856     254.221
  O      422.059     194.493     254.221
  O      422.927     195.968     252.386
  O      420.689     196.644     253.581
  H      423.824     195.641     252.561
  H      423.204     192.852     254.626
  H      424.030     194.408     254.849
  H      423.711     193.781     253.203
  H      421.809     202.191     259.646
  H      421.669     200.491     259.269
  H      420.231     201.453     259.510

 3  4  5  6  7  8  9  10  11  12  22  25  29  30  31  32 0
 6-311+G(2d,p)
 ****
 33  36  37 0
 6-311+G(2d,p)
 ****
 1  2  13  14  15  16  17  18  19  20  21  23  24  26 0
 3-21G
 ****
 27  28  34  35  38  39  40  41  42  43  44  45  46  47  48 0
 3-21G
 ****


